version 2
run General-0-20171031-17:43:07-17233
attr configname General
attr datetime 20171031-17:43:07
attr experiment General
attr inifile omnetpp.ini
attr iterationvars ""
attr iterationvarsf ""
attr measurement ""
attr network test1
attr processid 17233
attr repetition 0
attr replication #0
attr resultdir results
attr runnumber 0
attr seedset 23
param **.coreDebug false
param **.debug false
param **.totalRSUs 64
param *.**.nic.mac1609_4.bitrate 6Mbps
param *.**.nic.mac1609_4.txPower 20mW
param *.**.nic.mac1609_4.useServiceChannel false
param *.**.nic.phy80211p.analogueModels "xmldoc(\"config.xml\")"
param *.**.nic.phy80211p.antenna "xmldoc(\"antenna.xml\", \"/root/Antenna[@id='monopole']\")"
param *.**.nic.phy80211p.decider "xmldoc(\"config.xml\")"
param *.**.nic.phy80211p.sensitivity -91dBm
param *.**.nic.phy80211p.thermalNoise -110dBm
param *.**.nic.phy80211p.usePropagationDelay true
param *.**.nic.phy80211p.useThermalNoise true
param *.connectionManager.drawMaxIntfDist false
param *.connectionManager.maxInterfDist 2600m
param *.connectionManager.sendDirect true
param *.manager.autoShutdown true
param *.manager.host "\"localhost\""
param *.manager.launchConfig "xmldoc(\"smallmap.launchd.xml\")"
param *.manager.port 9999
param *.manager.updateInterval 1s
param *.node[*].appl.beaconInterval 1s
param *.node[*].appl.dataOnSch false
param *.node[*].appl.headerLength "80 bit"
param *.node[*].appl.numRSUs 64
param *.node[*].appl.sendBeacons false
param *.node[*].applType "\"TraCIDemo11p\""
param *.node[*].veinsmobility.x 0
param *.node[*].veinsmobility.y 0
param *.node[*].veinsmobility.z 1.895
param *.node[*].veinsmobilityType.debug true
param *.obstacles.debug false
param *.obstacles.obstacles "xmldoc(\"config.xml\", \"//AnalogueModel[@type='SimpleObstacleShadowing']/obstacles\")"
param *.playgroundSizeX 5000m
param *.playgroundSizeY 5000m
param *.playgroundSizeZ 50m
param *.rsu[*].appl.RSUMsgInterval 1s
param *.rsu[*].appl.beaconInterval 1s
param *.rsu[*].appl.beaconUserPriority 7
param *.rsu[*].appl.dataOnSch false
param *.rsu[*].appl.dataUserPriority 5
param *.rsu[*].appl.headerLength "80 bit"
param *.rsu[*].appl.numHotSpots 10
param *.rsu[*].appl.numRSUs 64
param *.rsu[*].appl.sendBeacons false
param *.rsu[*].appl.sendRSUMsgs true
param *.rsu[*].applicationType "\"TraCIDemoRSU11p\""
param *.rsu[16].appl.hotspotFlag true
param *.rsu[18].appl.hotspotFlag true
param *.rsu[19].appl.hotspotFlag true
param *.rsu[1].appl.hotspotFlag true
param *.rsu[20].appl.hotspotFlag true
param *.rsu[21].appl.hotspotFlag true
param *.rsu[22].appl.hotspotFlag true
param *.rsu[23].appl.hotspotFlag true
param *.rsu[34].appl.hotspotFlag true
param *.rsu[35].appl.hotspotFlag true
param *.rsu[37].appl.hotspotFlag true
param *.rsu[41].appl.hotspotFlag true
param *.rsu[43].appl.hotspotFlag true
param *.rsu[4].appl.hotspotFlag true
param *.rsu[54].appl.hotspotFlag true
param *.rsu[56].appl.hotspotFlag true
param *.rsu[5].appl.hotspotFlag true
param *.rsu[60].appl.hotspotFlag true
param *.rsu[8].appl.hotspotFlag true
param *.rsu[9].appl.hotspotFlag true

scalar test1.node[0].appl 	generatedWSMs 	0
scalar test1.node[0].appl 	receivedWSMs 	0
scalar test1.node[0].appl 	generatedBSMs 	0
scalar test1.node[0].appl 	receivedBSMs 	0
scalar test1.node[0].appl 	generatedWSAs 	0
scalar test1.node[0].appl 	receivedWSAs 	0
scalar test1.node[0].appl 	generatedCWSMs 	117
scalar test1.node[0].appl 	receivedCWSMs 	34
scalar test1.node[0].nic.phy80211p 	busyTime 	0.00034466615514487
scalar test1.node[0].nic.mac1609_4 	ReceivedUnicastPackets 	0
scalar test1.node[0].nic.mac1609_4 	ReceivedBroadcasts 	34
scalar test1.node[0].nic.mac1609_4 	SentPackets 	117
scalar test1.node[0].nic.mac1609_4 	SNIRLostPackets 	17
scalar test1.node[0].nic.mac1609_4 	RXTXLostPackets 	11
scalar test1.node[0].nic.mac1609_4 	TotalLostPackets 	28
scalar test1.node[0].nic.mac1609_4 	DroppedPacketsInMac 	0
scalar test1.node[0].nic.mac1609_4 	TooLittleTime 	0
scalar test1.node[0].nic.mac1609_4 	TimesIntoBackoff 	117
scalar test1.node[0].nic.mac1609_4 	SlotsBackoff 	186
scalar test1.node[0].nic.mac1609_4 	NumInternalContention 	0
scalar test1.node[0].nic.mac1609_4 	totalBusyTime 	0.037005
scalar test1.node[0].veinsmobility 	startTime 	1
scalar test1.node[0].veinsmobility 	totalTime 	35
scalar test1.node[0].veinsmobility 	stopTime 	36.001986182627
scalar test1.node[0].veinsmobility 	minSpeed 	3.7705300111942
scalar test1.node[0].veinsmobility 	maxSpeed 	13.389148839461
scalar test1.node[0].veinsmobility 	totalDistance 	316.99041659425
scalar test1.node[0].veinsmobility 	totalCO2Emission 	118.34561962621
scalar test1.node[1].appl 	generatedWSMs 	0
scalar test1.node[1].appl 	receivedWSMs 	0
scalar test1.node[1].appl 	generatedBSMs 	0
scalar test1.node[1].appl 	receivedBSMs 	0
scalar test1.node[1].appl 	generatedWSAs 	0
scalar test1.node[1].appl 	receivedWSAs 	0
scalar test1.node[1].appl 	generatedCWSMs 	166
scalar test1.node[1].appl 	receivedCWSMs 	79
scalar test1.node[1].nic.phy80211p 	busyTime 	0.00053902733509622
scalar test1.node[1].nic.mac1609_4 	ReceivedUnicastPackets 	0
scalar test1.node[1].nic.mac1609_4 	ReceivedBroadcasts 	79
scalar test1.node[1].nic.mac1609_4 	SentPackets 	166
scalar test1.node[1].nic.mac1609_4 	SNIRLostPackets 	0
scalar test1.node[1].nic.mac1609_4 	RXTXLostPackets 	8
scalar test1.node[1].nic.mac1609_4 	TotalLostPackets 	8
scalar test1.node[1].nic.mac1609_4 	DroppedPacketsInMac 	0
scalar test1.node[1].nic.mac1609_4 	TooLittleTime 	0
scalar test1.node[1].nic.mac1609_4 	TimesIntoBackoff 	166
scalar test1.node[1].nic.mac1609_4 	SlotsBackoff 	245
scalar test1.node[1].nic.mac1609_4 	NumInternalContention 	0
scalar test1.node[1].nic.mac1609_4 	totalBusyTime 	0.057006
scalar test1.node[1].veinsmobility 	startTime 	2
scalar test1.node[1].veinsmobility 	totalTime 	34
scalar test1.node[1].veinsmobility 	stopTime 	36.001986182627
scalar test1.node[1].veinsmobility 	minSpeed 	3.5537402299491
scalar test1.node[1].veinsmobility 	maxSpeed 	13.380819298204
scalar test1.node[1].veinsmobility 	totalDistance 	302.09422559353
scalar test1.node[1].veinsmobility 	totalCO2Emission 	120.26495094063
scalar test1.node[8].appl 	generatedWSMs 	0
scalar test1.node[8].appl 	receivedWSMs 	0
scalar test1.node[8].appl 	generatedBSMs 	0
scalar test1.node[8].appl 	receivedBSMs 	0
scalar test1.node[8].appl 	generatedWSAs 	0
scalar test1.node[8].appl 	receivedWSAs 	0
scalar test1.node[8].appl 	generatedCWSMs 	99
scalar test1.node[8].appl 	receivedCWSMs 	77
scalar test1.node[8].nic.phy80211p 	busyTime 	0.00092792627875784
scalar test1.node[8].nic.mac1609_4 	ReceivedUnicastPackets 	0
scalar test1.node[8].nic.mac1609_4 	ReceivedBroadcasts 	77
scalar test1.node[8].nic.mac1609_4 	SentPackets 	99
scalar test1.node[8].nic.mac1609_4 	SNIRLostPackets 	22
scalar test1.node[8].nic.mac1609_4 	RXTXLostPackets 	37
scalar test1.node[8].nic.mac1609_4 	TotalLostPackets 	59
scalar test1.node[8].nic.mac1609_4 	DroppedPacketsInMac 	0
scalar test1.node[8].nic.mac1609_4 	TooLittleTime 	0
scalar test1.node[8].nic.mac1609_4 	TimesIntoBackoff 	99
scalar test1.node[8].nic.mac1609_4 	SlotsBackoff 	146
scalar test1.node[8].nic.mac1609_4 	NumInternalContention 	0
scalar test1.node[8].nic.mac1609_4 	totalBusyTime 	0.042597820843
scalar test1.node[8].veinsmobility 	startTime 	11
scalar test1.node[8].veinsmobility 	totalTime 	25
scalar test1.node[8].veinsmobility 	stopTime 	36.001986182627
scalar test1.node[8].veinsmobility 	minSpeed 	4.5579899521199e-14
scalar test1.node[8].veinsmobility 	maxSpeed 	12.147794224647
scalar test1.node[8].veinsmobility 	totalDistance 	73.553170295203
scalar test1.node[8].veinsmobility 	totalCO2Emission 	45.321348265926
scalar test1.node[9].appl 	generatedWSMs 	0
scalar test1.node[9].appl 	receivedWSMs 	0
scalar test1.node[9].appl 	generatedBSMs 	0
scalar test1.node[9].appl 	receivedBSMs 	0
scalar test1.node[9].appl 	generatedWSAs 	0
scalar test1.node[9].appl 	receivedWSAs 	0
scalar test1.node[9].appl 	generatedCWSMs 	78
scalar test1.node[9].appl 	receivedCWSMs 	9
scalar test1.node[9].nic.phy80211p 	busyTime 	0.00010632453416906
scalar test1.node[9].nic.mac1609_4 	ReceivedUnicastPackets 	0
scalar test1.node[9].nic.mac1609_4 	ReceivedBroadcasts 	9
scalar test1.node[9].nic.mac1609_4 	SentPackets 	78
scalar test1.node[9].nic.mac1609_4 	SNIRLostPackets 	2
scalar test1.node[9].nic.mac1609_4 	RXTXLostPackets 	4
scalar test1.node[9].nic.mac1609_4 	TotalLostPackets 	6
scalar test1.node[9].nic.mac1609_4 	DroppedPacketsInMac 	0
scalar test1.node[9].nic.mac1609_4 	TooLittleTime 	0
scalar test1.node[9].nic.mac1609_4 	TimesIntoBackoff 	78
scalar test1.node[9].nic.mac1609_4 	SlotsBackoff 	105
scalar test1.node[9].nic.mac1609_4 	NumInternalContention 	0
scalar test1.node[9].nic.mac1609_4 	totalBusyTime 	0.020726
scalar test1.node[9].veinsmobility 	startTime 	12
scalar test1.node[9].veinsmobility 	totalTime 	24
scalar test1.node[9].veinsmobility 	stopTime 	36.001986182627
scalar test1.node[9].veinsmobility 	minSpeed 	4.755131760102e-14
scalar test1.node[9].veinsmobility 	maxSpeed 	13.391256723485
scalar test1.node[9].veinsmobility 	totalDistance 	205.5617599768
scalar test1.node[9].veinsmobility 	totalCO2Emission 	56.730817279258
scalar test1.node[10].appl 	generatedWSMs 	0
scalar test1.node[10].appl 	receivedWSMs 	0
scalar test1.node[10].appl 	generatedBSMs 	0
scalar test1.node[10].appl 	receivedBSMs 	0
scalar test1.node[10].appl 	generatedWSAs 	0
scalar test1.node[10].appl 	receivedWSAs 	0
scalar test1.node[10].appl 	generatedCWSMs 	97
scalar test1.node[10].appl 	receivedCWSMs 	72
scalar test1.node[10].nic.phy80211p 	busyTime 	0.00099852246747923
scalar test1.node[10].nic.mac1609_4 	ReceivedUnicastPackets 	0
scalar test1.node[10].nic.mac1609_4 	ReceivedBroadcasts 	72
scalar test1.node[10].nic.mac1609_4 	SentPackets 	97
scalar test1.node[10].nic.mac1609_4 	SNIRLostPackets 	25
scalar test1.node[10].nic.mac1609_4 	RXTXLostPackets 	28
scalar test1.node[10].nic.mac1609_4 	TotalLostPackets 	53
scalar test1.node[10].nic.mac1609_4 	DroppedPacketsInMac 	0
scalar test1.node[10].nic.mac1609_4 	TooLittleTime 	0
scalar test1.node[10].nic.mac1609_4 	TimesIntoBackoff 	97
scalar test1.node[10].nic.mac1609_4 	SlotsBackoff 	142
scalar test1.node[10].nic.mac1609_4 	NumInternalContention 	0
scalar test1.node[10].nic.mac1609_4 	totalBusyTime 	0.041393
scalar test1.node[10].veinsmobility 	startTime 	13
scalar test1.node[10].veinsmobility 	totalTime 	23
scalar test1.node[10].veinsmobility 	stopTime 	36.001986182627
scalar test1.node[10].veinsmobility 	minSpeed 	3.5381639465932
scalar test1.node[10].veinsmobility 	maxSpeed 	13.399860934315
scalar test1.node[10].veinsmobility 	totalDistance 	194.75993769361
scalar test1.node[10].veinsmobility 	totalCO2Emission 	83.55922299236
scalar test1.node[11].appl 	generatedWSMs 	0
scalar test1.node[11].appl 	receivedWSMs 	0
scalar test1.node[11].appl 	generatedBSMs 	0
scalar test1.node[11].appl 	receivedBSMs 	0
scalar test1.node[11].appl 	generatedWSAs 	0
scalar test1.node[11].appl 	receivedWSAs 	0
scalar test1.node[11].appl 	generatedCWSMs 	106
scalar test1.node[11].appl 	receivedCWSMs 	190
scalar test1.node[11].nic.phy80211p 	busyTime 	0.0025834031313446
scalar test1.node[11].nic.mac1609_4 	ReceivedUnicastPackets 	0
scalar test1.node[11].nic.mac1609_4 	ReceivedBroadcasts 	190
scalar test1.node[11].nic.mac1609_4 	SentPackets 	105
scalar test1.node[11].nic.mac1609_4 	SNIRLostPackets 	55
scalar test1.node[11].nic.mac1609_4 	RXTXLostPackets 	78
scalar test1.node[11].nic.mac1609_4 	TotalLostPackets 	133
scalar test1.node[11].nic.mac1609_4 	DroppedPacketsInMac 	0
scalar test1.node[11].nic.mac1609_4 	TooLittleTime 	0
scalar test1.node[11].nic.mac1609_4 	TimesIntoBackoff 	105
scalar test1.node[11].nic.mac1609_4 	SlotsBackoff 	164
scalar test1.node[11].nic.mac1609_4 	NumInternalContention 	0
scalar test1.node[11].nic.mac1609_4 	totalBusyTime 	0.073185
scalar test1.node[11].veinsmobility 	startTime 	14
scalar test1.node[11].veinsmobility 	totalTime 	22
scalar test1.node[11].veinsmobility 	stopTime 	36.001986182627
scalar test1.node[11].veinsmobility 	minSpeed 	3.7603360557723
scalar test1.node[11].veinsmobility 	maxSpeed 	13.883592916226
scalar test1.node[11].veinsmobility 	totalDistance 	232.53925214263
scalar test1.node[11].veinsmobility 	totalCO2Emission 	62.916589274528
scalar test1.node[12].appl 	generatedWSMs 	0
scalar test1.node[12].appl 	receivedWSMs 	0
scalar test1.node[12].appl 	generatedBSMs 	0
scalar test1.node[12].appl 	receivedBSMs 	0
scalar test1.node[12].appl 	generatedWSAs 	0
scalar test1.node[12].appl 	receivedWSAs 	0
scalar test1.node[12].appl 	generatedCWSMs 	101
scalar test1.node[12].appl 	receivedCWSMs 	66
scalar test1.node[12].nic.phy80211p 	busyTime 	0.00072907390124207
scalar test1.node[12].nic.mac1609_4 	ReceivedUnicastPackets 	0
scalar test1.node[12].nic.mac1609_4 	ReceivedBroadcasts 	66
scalar test1.node[12].nic.mac1609_4 	SentPackets 	101
scalar test1.node[12].nic.mac1609_4 	SNIRLostPackets 	0
scalar test1.node[12].nic.mac1609_4 	RXTXLostPackets 	14
scalar test1.node[12].nic.mac1609_4 	TotalLostPackets 	14
scalar test1.node[12].nic.mac1609_4 	DroppedPacketsInMac 	0
scalar test1.node[12].nic.mac1609_4 	TooLittleTime 	0
scalar test1.node[12].nic.mac1609_4 	TimesIntoBackoff 	101
scalar test1.node[12].nic.mac1609_4 	SlotsBackoff 	148
scalar test1.node[12].nic.mac1609_4 	NumInternalContention 	0
scalar test1.node[12].nic.mac1609_4 	totalBusyTime 	0.038845
scalar test1.node[12].veinsmobility 	startTime 	15
scalar test1.node[12].veinsmobility 	totalTime 	21
scalar test1.node[12].veinsmobility 	stopTime 	36.001986182627
scalar test1.node[12].veinsmobility 	minSpeed 	3.6265350961166
scalar test1.node[12].veinsmobility 	maxSpeed 	13.393130858496
scalar test1.node[12].veinsmobility 	totalDistance 	210.33923314069
scalar test1.node[12].veinsmobility 	totalCO2Emission 	66.817769951816
scalar test1.node[13].appl 	generatedWSMs 	0
scalar test1.node[13].appl 	receivedWSMs 	0
scalar test1.node[13].appl 	generatedBSMs 	0
scalar test1.node[13].appl 	receivedBSMs 	0
scalar test1.node[13].appl 	generatedWSAs 	0
scalar test1.node[13].appl 	receivedWSAs 	0
scalar test1.node[13].appl 	generatedCWSMs 	78
scalar test1.node[13].appl 	receivedCWSMs 	11
scalar test1.node[13].nic.phy80211p 	busyTime 	0.00012758732941314
scalar test1.node[13].nic.mac1609_4 	ReceivedUnicastPackets 	0
scalar test1.node[13].nic.mac1609_4 	ReceivedBroadcasts 	11
scalar test1.node[13].nic.mac1609_4 	SentPackets 	78
scalar test1.node[13].nic.mac1609_4 	SNIRLostPackets 	0
scalar test1.node[13].nic.mac1609_4 	RXTXLostPackets 	0
scalar test1.node[13].nic.mac1609_4 	TotalLostPackets 	0
scalar test1.node[13].nic.mac1609_4 	DroppedPacketsInMac 	0
scalar test1.node[13].nic.mac1609_4 	TooLittleTime 	0
scalar test1.node[13].nic.mac1609_4 	TimesIntoBackoff 	78
scalar test1.node[13].nic.mac1609_4 	SlotsBackoff 	109
scalar test1.node[13].nic.mac1609_4 	NumInternalContention 	0
scalar test1.node[13].nic.mac1609_4 	totalBusyTime 	0.020726
scalar test1.node[13].veinsmobility 	startTime 	16
scalar test1.node[13].veinsmobility 	totalTime 	20
scalar test1.node[13].veinsmobility 	stopTime 	36.001986182627
scalar test1.node[13].veinsmobility 	minSpeed 	3.8347112669018
scalar test1.node[13].veinsmobility 	maxSpeed 	13.406725261989
scalar test1.node[13].veinsmobility 	totalDistance 	234.44443493985
scalar test1.node[13].veinsmobility 	totalCO2Emission 	57.877729464136
scalar test1.node[14].appl 	generatedWSMs 	0
scalar test1.node[14].appl 	receivedWSMs 	0
scalar test1.node[14].appl 	generatedBSMs 	0
scalar test1.node[14].appl 	receivedBSMs 	0
scalar test1.node[14].appl 	generatedWSAs 	0
scalar test1.node[14].appl 	receivedWSAs 	0
scalar test1.node[14].appl 	generatedCWSMs 	91
scalar test1.node[14].appl 	receivedCWSMs 	70
scalar test1.node[14].nic.phy80211p 	busyTime 	0.0011354602509777
scalar test1.node[14].nic.mac1609_4 	ReceivedUnicastPackets 	0
scalar test1.node[14].nic.mac1609_4 	ReceivedBroadcasts 	70
scalar test1.node[14].nic.mac1609_4 	SentPackets 	91
scalar test1.node[14].nic.mac1609_4 	SNIRLostPackets 	23
scalar test1.node[14].nic.mac1609_4 	RXTXLostPackets 	22
scalar test1.node[14].nic.mac1609_4 	TotalLostPackets 	45
scalar test1.node[14].nic.mac1609_4 	DroppedPacketsInMac 	0
scalar test1.node[14].nic.mac1609_4 	TooLittleTime 	0
scalar test1.node[14].nic.mac1609_4 	TimesIntoBackoff 	91
scalar test1.node[14].nic.mac1609_4 	SlotsBackoff 	147
scalar test1.node[14].nic.mac1609_4 	NumInternalContention 	0
scalar test1.node[14].nic.mac1609_4 	totalBusyTime 	0.039763
scalar test1.node[14].veinsmobility 	startTime 	17
scalar test1.node[14].veinsmobility 	totalTime 	19
scalar test1.node[14].veinsmobility 	stopTime 	36.001986182627
scalar test1.node[14].veinsmobility 	minSpeed 	3.9685932953442
scalar test1.node[14].veinsmobility 	maxSpeed 	13.406111109103
scalar test1.node[14].veinsmobility 	totalDistance 	210.65817309544
scalar test1.node[14].veinsmobility 	totalCO2Emission 	54.809428958179
scalar test1.node[15].appl 	generatedWSMs 	0
scalar test1.node[15].appl 	receivedWSMs 	0
scalar test1.node[15].appl 	generatedBSMs 	0
scalar test1.node[15].appl 	receivedBSMs 	0
scalar test1.node[15].appl 	generatedWSAs 	0
scalar test1.node[15].appl 	receivedWSAs 	0
scalar test1.node[15].appl 	generatedCWSMs 	84
scalar test1.node[15].appl 	receivedCWSMs 	45
scalar test1.node[15].nic.phy80211p 	busyTime 	0.00064437334204793
scalar test1.node[15].nic.mac1609_4 	ReceivedUnicastPackets 	0
scalar test1.node[15].nic.mac1609_4 	ReceivedBroadcasts 	45
scalar test1.node[15].nic.mac1609_4 	SentPackets 	84
scalar test1.node[15].nic.mac1609_4 	SNIRLostPackets 	5
scalar test1.node[15].nic.mac1609_4 	RXTXLostPackets 	11
scalar test1.node[15].nic.mac1609_4 	TotalLostPackets 	16
scalar test1.node[15].nic.mac1609_4 	DroppedPacketsInMac 	0
scalar test1.node[15].nic.mac1609_4 	TooLittleTime 	0
scalar test1.node[15].nic.mac1609_4 	TimesIntoBackoff 	84
scalar test1.node[15].nic.mac1609_4 	SlotsBackoff 	118
scalar test1.node[15].nic.mac1609_4 	NumInternalContention 	0
scalar test1.node[15].nic.mac1609_4 	totalBusyTime 	0.030244
scalar test1.node[15].veinsmobility 	startTime 	18
scalar test1.node[15].veinsmobility 	totalTime 	18
scalar test1.node[15].veinsmobility 	stopTime 	36.001986182627
scalar test1.node[15].veinsmobility 	minSpeed 	3.6777598331166
scalar test1.node[15].veinsmobility 	maxSpeed 	13.363729418046
scalar test1.node[15].veinsmobility 	totalDistance 	169.18555370581
scalar test1.node[15].veinsmobility 	totalCO2Emission 	60.196667461519
scalar test1.node[16].appl 	generatedWSMs 	0
scalar test1.node[16].appl 	receivedWSMs 	0
scalar test1.node[16].appl 	generatedBSMs 	0
scalar test1.node[16].appl 	receivedBSMs 	0
scalar test1.node[16].appl 	generatedWSAs 	0
scalar test1.node[16].appl 	receivedWSAs 	0
scalar test1.node[16].appl 	generatedCWSMs 	81
scalar test1.node[16].appl 	receivedCWSMs 	74
scalar test1.node[16].nic.phy80211p 	busyTime 	0.0011735099526423
scalar test1.node[16].nic.mac1609_4 	ReceivedUnicastPackets 	0
scalar test1.node[16].nic.mac1609_4 	ReceivedBroadcasts 	74
scalar test1.node[16].nic.mac1609_4 	SentPackets 	81
scalar test1.node[16].nic.mac1609_4 	SNIRLostPackets 	12
scalar test1.node[16].nic.mac1609_4 	RXTXLostPackets 	24
scalar test1.node[16].nic.mac1609_4 	TotalLostPackets 	36
scalar test1.node[16].nic.mac1609_4 	DroppedPacketsInMac 	0
scalar test1.node[16].nic.mac1609_4 	TooLittleTime 	0
scalar test1.node[16].nic.mac1609_4 	TimesIntoBackoff 	81
scalar test1.node[16].nic.mac1609_4 	SlotsBackoff 	125
scalar test1.node[16].nic.mac1609_4 	NumInternalContention 	0
scalar test1.node[16].nic.mac1609_4 	totalBusyTime 	0.037433
scalar test1.node[16].veinsmobility 	startTime 	19
scalar test1.node[16].veinsmobility 	totalTime 	17
scalar test1.node[16].veinsmobility 	stopTime 	36.001986182627
scalar test1.node[16].veinsmobility 	minSpeed 	0
scalar test1.node[16].veinsmobility 	maxSpeed 	13.337423155606
scalar test1.node[16].veinsmobility 	totalDistance 	103.63962371564
scalar test1.node[16].veinsmobility 	totalCO2Emission 	41.584520905543
scalar test1.node[17].appl 	generatedWSMs 	0
scalar test1.node[17].appl 	receivedWSMs 	0
scalar test1.node[17].appl 	generatedBSMs 	0
scalar test1.node[17].appl 	receivedBSMs 	0
scalar test1.node[17].appl 	generatedWSAs 	0
scalar test1.node[17].appl 	receivedWSAs 	0
scalar test1.node[17].appl 	generatedCWSMs 	56
scalar test1.node[17].appl 	receivedCWSMs 	31
scalar test1.node[17].nic.phy80211p 	busyTime 	0.00057992800981637
scalar test1.node[17].nic.mac1609_4 	ReceivedUnicastPackets 	0
scalar test1.node[17].nic.mac1609_4 	ReceivedBroadcasts 	31
scalar test1.node[17].nic.mac1609_4 	SentPackets 	55
scalar test1.node[17].nic.mac1609_4 	SNIRLostPackets 	9
scalar test1.node[17].nic.mac1609_4 	RXTXLostPackets 	4
scalar test1.node[17].nic.mac1609_4 	TotalLostPackets 	13
scalar test1.node[17].nic.mac1609_4 	DroppedPacketsInMac 	0
scalar test1.node[17].nic.mac1609_4 	TooLittleTime 	0
scalar test1.node[17].nic.mac1609_4 	TimesIntoBackoff 	54
scalar test1.node[17].nic.mac1609_4 	SlotsBackoff 	89
scalar test1.node[17].nic.mac1609_4 	NumInternalContention 	0
scalar test1.node[17].nic.mac1609_4 	totalBusyTime 	0.02047
scalar test1.node[17].veinsmobility 	startTime 	20
scalar test1.node[17].veinsmobility 	totalTime 	16
scalar test1.node[17].veinsmobility 	stopTime 	36.001986182627
scalar test1.node[17].veinsmobility 	minSpeed 	2.9961301377933
scalar test1.node[17].veinsmobility 	maxSpeed 	12.499290718515
scalar test1.node[17].veinsmobility 	totalDistance 	120.65823491754
scalar test1.node[17].veinsmobility 	totalCO2Emission 	51.328599834754
scalar test1.node[18].appl 	generatedWSMs 	0
scalar test1.node[18].appl 	receivedWSMs 	0
scalar test1.node[18].appl 	generatedBSMs 	0
scalar test1.node[18].appl 	receivedBSMs 	0
scalar test1.node[18].appl 	generatedWSAs 	0
scalar test1.node[18].appl 	receivedWSAs 	0
scalar test1.node[18].appl 	generatedCWSMs 	71
scalar test1.node[18].appl 	receivedCWSMs 	72
scalar test1.node[18].nic.phy80211p 	busyTime 	0.0011598464222124
scalar test1.node[18].nic.mac1609_4 	ReceivedUnicastPackets 	0
scalar test1.node[18].nic.mac1609_4 	ReceivedBroadcasts 	72
scalar test1.node[18].nic.mac1609_4 	SentPackets 	71
scalar test1.node[18].nic.mac1609_4 	SNIRLostPackets 	3
scalar test1.node[18].nic.mac1609_4 	RXTXLostPackets 	30
scalar test1.node[18].nic.mac1609_4 	TotalLostPackets 	33
scalar test1.node[18].nic.mac1609_4 	DroppedPacketsInMac 	0
scalar test1.node[18].nic.mac1609_4 	TooLittleTime 	0
scalar test1.node[18].nic.mac1609_4 	TimesIntoBackoff 	71
scalar test1.node[18].nic.mac1609_4 	SlotsBackoff 	105
scalar test1.node[18].nic.mac1609_4 	NumInternalContention 	0
scalar test1.node[18].nic.mac1609_4 	totalBusyTime 	0.033479163185
scalar test1.node[18].veinsmobility 	startTime 	21
scalar test1.node[18].veinsmobility 	totalTime 	15
scalar test1.node[18].veinsmobility 	stopTime 	36.001986182627
scalar test1.node[18].veinsmobility 	minSpeed 	3.5287001398724
scalar test1.node[18].veinsmobility 	maxSpeed 	13.367930218366
scalar test1.node[18].veinsmobility 	totalDistance 	112.78841214257
scalar test1.node[18].veinsmobility 	totalCO2Emission 	58.283863203546
scalar test1.node[19].appl 	generatedWSMs 	0
scalar test1.node[19].appl 	receivedWSMs 	0
scalar test1.node[19].appl 	generatedBSMs 	0
scalar test1.node[19].appl 	receivedBSMs 	0
scalar test1.node[19].appl 	generatedWSAs 	0
scalar test1.node[19].appl 	receivedWSAs 	0
scalar test1.node[19].appl 	generatedCWSMs 	66
scalar test1.node[19].appl 	receivedCWSMs 	156
scalar test1.node[19].nic.phy80211p 	busyTime 	0.0030487103360354
scalar test1.node[19].nic.mac1609_4 	ReceivedUnicastPackets 	0
scalar test1.node[19].nic.mac1609_4 	ReceivedBroadcasts 	156
scalar test1.node[19].nic.mac1609_4 	SentPackets 	66
scalar test1.node[19].nic.mac1609_4 	SNIRLostPackets 	28
scalar test1.node[19].nic.mac1609_4 	RXTXLostPackets 	53
scalar test1.node[19].nic.mac1609_4 	TotalLostPackets 	81
scalar test1.node[19].nic.mac1609_4 	DroppedPacketsInMac 	0
scalar test1.node[19].nic.mac1609_4 	TooLittleTime 	0
scalar test1.node[19].nic.mac1609_4 	TimesIntoBackoff 	66
scalar test1.node[19].nic.mac1609_4 	SlotsBackoff 	112
scalar test1.node[19].nic.mac1609_4 	NumInternalContention 	0
scalar test1.node[19].nic.mac1609_4 	totalBusyTime 	0.054586689052
scalar test1.node[19].veinsmobility 	startTime 	22
scalar test1.node[19].veinsmobility 	totalTime 	14
scalar test1.node[19].veinsmobility 	stopTime 	36.001986182627
scalar test1.node[19].veinsmobility 	minSpeed 	3.7827009347205
scalar test1.node[19].veinsmobility 	maxSpeed 	13.392020122441
scalar test1.node[19].veinsmobility 	totalDistance 	152.67522077547
scalar test1.node[19].veinsmobility 	totalCO2Emission 	45.835551011595
scalar test1.node[20].appl 	generatedWSMs 	0
scalar test1.node[20].appl 	receivedWSMs 	0
scalar test1.node[20].appl 	generatedBSMs 	0
scalar test1.node[20].appl 	receivedBSMs 	0
scalar test1.node[20].appl 	generatedWSAs 	0
scalar test1.node[20].appl 	receivedWSAs 	0
scalar test1.node[20].appl 	generatedCWSMs 	61
scalar test1.node[20].appl 	receivedCWSMs 	14
scalar test1.node[20].nic.phy80211p 	busyTime 	0.00024980798736272
scalar test1.node[20].nic.mac1609_4 	ReceivedUnicastPackets 	0
scalar test1.node[20].nic.mac1609_4 	ReceivedBroadcasts 	14
scalar test1.node[20].nic.mac1609_4 	SentPackets 	61
scalar test1.node[20].nic.mac1609_4 	SNIRLostPackets 	0
scalar test1.node[20].nic.mac1609_4 	RXTXLostPackets 	0
scalar test1.node[20].nic.mac1609_4 	TotalLostPackets 	0
scalar test1.node[20].nic.mac1609_4 	DroppedPacketsInMac 	0
scalar test1.node[20].nic.mac1609_4 	TooLittleTime 	0
scalar test1.node[20].nic.mac1609_4 	TimesIntoBackoff 	61
scalar test1.node[20].nic.mac1609_4 	SlotsBackoff 	103
scalar test1.node[20].nic.mac1609_4 	NumInternalContention 	0
scalar test1.node[20].nic.mac1609_4 	totalBusyTime 	0.017461
scalar test1.node[20].veinsmobility 	startTime 	23
scalar test1.node[20].veinsmobility 	totalTime 	13
scalar test1.node[20].veinsmobility 	stopTime 	36.001986182627
scalar test1.node[20].veinsmobility 	minSpeed 	4.0507279573004
scalar test1.node[20].veinsmobility 	maxSpeed 	13.390092875261
scalar test1.node[20].veinsmobility 	totalDistance 	138.97716809364
scalar test1.node[20].veinsmobility 	totalCO2Emission 	43.999273823272
scalar test1.node[21].appl 	generatedWSMs 	0
scalar test1.node[21].appl 	receivedWSMs 	0
scalar test1.node[21].appl 	generatedBSMs 	0
scalar test1.node[21].appl 	receivedBSMs 	0
scalar test1.node[21].appl 	generatedWSAs 	0
scalar test1.node[21].appl 	receivedWSAs 	0
scalar test1.node[21].appl 	generatedCWSMs 	56
scalar test1.node[21].appl 	receivedCWSMs 	146
scalar test1.node[21].nic.phy80211p 	busyTime 	0.0032474624955341
scalar test1.node[21].nic.mac1609_4 	ReceivedUnicastPackets 	0
scalar test1.node[21].nic.mac1609_4 	ReceivedBroadcasts 	146
scalar test1.node[21].nic.mac1609_4 	SentPackets 	56
scalar test1.node[21].nic.mac1609_4 	SNIRLostPackets 	22
scalar test1.node[21].nic.mac1609_4 	RXTXLostPackets 	51
scalar test1.node[21].nic.mac1609_4 	TotalLostPackets 	73
scalar test1.node[21].nic.mac1609_4 	DroppedPacketsInMac 	0
scalar test1.node[21].nic.mac1609_4 	TooLittleTime 	0
scalar test1.node[21].nic.mac1609_4 	TimesIntoBackoff 	56
scalar test1.node[21].nic.mac1609_4 	SlotsBackoff 	85
scalar test1.node[21].nic.mac1609_4 	NumInternalContention 	0
scalar test1.node[21].nic.mac1609_4 	totalBusyTime 	0.049008055488
scalar test1.node[21].veinsmobility 	startTime 	24
scalar test1.node[21].veinsmobility 	totalTime 	12
scalar test1.node[21].veinsmobility 	stopTime 	36.001986182627
scalar test1.node[21].veinsmobility 	minSpeed 	2.6326797186954
scalar test1.node[21].veinsmobility 	maxSpeed 	13.379376263607
scalar test1.node[21].veinsmobility 	totalDistance 	119.25629652148
scalar test1.node[21].veinsmobility 	totalCO2Emission 	42.879363000253
scalar test1.node[22].appl 	generatedWSMs 	0
scalar test1.node[22].appl 	receivedWSMs 	0
scalar test1.node[22].appl 	generatedBSMs 	0
scalar test1.node[22].appl 	receivedBSMs 	0
scalar test1.node[22].appl 	generatedWSAs 	0
scalar test1.node[22].appl 	receivedWSAs 	0
scalar test1.node[22].appl 	generatedCWSMs 	51
scalar test1.node[22].appl 	receivedCWSMs 	71
scalar test1.node[22].nic.phy80211p 	busyTime 	0.0019611004451242
scalar test1.node[22].nic.mac1609_4 	ReceivedUnicastPackets 	0
scalar test1.node[22].nic.mac1609_4 	ReceivedBroadcasts 	71
scalar test1.node[22].nic.mac1609_4 	SentPackets 	51
scalar test1.node[22].nic.mac1609_4 	SNIRLostPackets 	22
scalar test1.node[22].nic.mac1609_4 	RXTXLostPackets 	23
scalar test1.node[22].nic.mac1609_4 	TotalLostPackets 	45
scalar test1.node[22].nic.mac1609_4 	DroppedPacketsInMac 	0
scalar test1.node[22].nic.mac1609_4 	TooLittleTime 	0
scalar test1.node[22].nic.mac1609_4 	TimesIntoBackoff 	51
scalar test1.node[22].nic.mac1609_4 	SlotsBackoff 	73
scalar test1.node[22].nic.mac1609_4 	NumInternalContention 	0
scalar test1.node[22].nic.mac1609_4 	totalBusyTime 	0.030675
scalar test1.node[22].veinsmobility 	startTime 	25
scalar test1.node[22].veinsmobility 	totalTime 	11
scalar test1.node[22].veinsmobility 	stopTime 	36.001986182627
scalar test1.node[22].veinsmobility 	minSpeed 	3.8294924687664
scalar test1.node[22].veinsmobility 	maxSpeed 	11.724862131104
scalar test1.node[22].veinsmobility 	totalDistance 	78.738657350468
scalar test1.node[22].veinsmobility 	totalCO2Emission 	37.822015758624
scalar test1.node[23].appl 	generatedWSMs 	0
scalar test1.node[23].appl 	receivedWSMs 	0
scalar test1.node[23].appl 	generatedBSMs 	0
scalar test1.node[23].appl 	receivedBSMs 	0
scalar test1.node[23].appl 	generatedWSAs 	0
scalar test1.node[23].appl 	receivedWSAs 	0
scalar test1.node[23].appl 	generatedCWSMs 	46
scalar test1.node[23].appl 	receivedCWSMs 	78
scalar test1.node[23].nic.phy80211p 	busyTime 	0.0032473550159884
scalar test1.node[23].nic.mac1609_4 	ReceivedUnicastPackets 	0
scalar test1.node[23].nic.mac1609_4 	ReceivedBroadcasts 	78
scalar test1.node[23].nic.mac1609_4 	SentPackets 	46
scalar test1.node[23].nic.mac1609_4 	SNIRLostPackets 	60
scalar test1.node[23].nic.mac1609_4 	RXTXLostPackets 	21
scalar test1.node[23].nic.mac1609_4 	TotalLostPackets 	81
scalar test1.node[23].nic.mac1609_4 	DroppedPacketsInMac 	0
scalar test1.node[23].nic.mac1609_4 	TooLittleTime 	0
scalar test1.node[23].nic.mac1609_4 	TimesIntoBackoff 	46
scalar test1.node[23].nic.mac1609_4 	SlotsBackoff 	65
scalar test1.node[23].nic.mac1609_4 	NumInternalContention 	0
scalar test1.node[23].nic.mac1609_4 	totalBusyTime 	0.034382
scalar test1.node[23].veinsmobility 	startTime 	26
scalar test1.node[23].veinsmobility 	totalTime 	10
scalar test1.node[23].veinsmobility 	stopTime 	36.001986182627
scalar test1.node[23].veinsmobility 	minSpeed 	3.9941417942363
scalar test1.node[23].veinsmobility 	maxSpeed 	13.34854136311
scalar test1.node[23].veinsmobility 	totalDistance 	101.71824487812
scalar test1.node[23].veinsmobility 	totalCO2Emission 	37.948415255226
scalar test1.node[24].appl 	generatedWSMs 	0
scalar test1.node[24].appl 	receivedWSMs 	0
scalar test1.node[24].appl 	generatedBSMs 	0
scalar test1.node[24].appl 	receivedBSMs 	0
scalar test1.node[24].appl 	generatedWSAs 	0
scalar test1.node[24].appl 	receivedWSAs 	0
scalar test1.node[24].appl 	generatedCWSMs 	41
scalar test1.node[24].appl 	receivedCWSMs 	8
scalar test1.node[24].nic.phy80211p 	busyTime 	0.00036080926299002
scalar test1.node[24].nic.mac1609_4 	ReceivedUnicastPackets 	0
scalar test1.node[24].nic.mac1609_4 	ReceivedBroadcasts 	8
scalar test1.node[24].nic.mac1609_4 	SentPackets 	41
scalar test1.node[24].nic.mac1609_4 	SNIRLostPackets 	6
scalar test1.node[24].nic.mac1609_4 	RXTXLostPackets 	4
scalar test1.node[24].nic.mac1609_4 	TotalLostPackets 	10
scalar test1.node[24].nic.mac1609_4 	DroppedPacketsInMac 	0
scalar test1.node[24].nic.mac1609_4 	TooLittleTime 	0
scalar test1.node[24].nic.mac1609_4 	TimesIntoBackoff 	41
scalar test1.node[24].nic.mac1609_4 	SlotsBackoff 	61
scalar test1.node[24].nic.mac1609_4 	NumInternalContention 	0
scalar test1.node[24].nic.mac1609_4 	totalBusyTime 	0.012105
scalar test1.node[24].veinsmobility 	startTime 	27
scalar test1.node[24].veinsmobility 	totalTime 	9
scalar test1.node[24].veinsmobility 	stopTime 	36.001986182627
scalar test1.node[24].veinsmobility 	minSpeed 	3.8792963630288
scalar test1.node[24].veinsmobility 	maxSpeed 	9.5424344633471
scalar test1.node[24].veinsmobility 	totalDistance 	53.560066203134
scalar test1.node[24].veinsmobility 	totalCO2Emission 	31.169889332605
scalar test1.node[25].appl 	generatedWSMs 	0
scalar test1.node[25].appl 	receivedWSMs 	0
scalar test1.node[25].appl 	generatedBSMs 	0
scalar test1.node[25].appl 	receivedBSMs 	0
scalar test1.node[25].appl 	generatedWSAs 	0
scalar test1.node[25].appl 	receivedWSAs 	0
scalar test1.node[25].appl 	generatedCWSMs 	36
scalar test1.node[25].appl 	receivedCWSMs 	6
scalar test1.node[25].nic.phy80211p 	busyTime 	0.00028992801875076
scalar test1.node[25].nic.mac1609_4 	ReceivedUnicastPackets 	0
scalar test1.node[25].nic.mac1609_4 	ReceivedBroadcasts 	6
scalar test1.node[25].nic.mac1609_4 	SentPackets 	36
scalar test1.node[25].nic.mac1609_4 	SNIRLostPackets 	4
scalar test1.node[25].nic.mac1609_4 	RXTXLostPackets 	1
scalar test1.node[25].nic.mac1609_4 	TotalLostPackets 	5
scalar test1.node[25].nic.mac1609_4 	DroppedPacketsInMac 	0
scalar test1.node[25].nic.mac1609_4 	TooLittleTime 	0
scalar test1.node[25].nic.mac1609_4 	TimesIntoBackoff 	36
scalar test1.node[25].nic.mac1609_4 	SlotsBackoff 	62
scalar test1.node[25].nic.mac1609_4 	NumInternalContention 	0
scalar test1.node[25].nic.mac1609_4 	totalBusyTime 	0.010244
scalar test1.node[25].veinsmobility 	startTime 	28
scalar test1.node[25].veinsmobility 	totalTime 	8
scalar test1.node[25].veinsmobility 	stopTime 	36.001986182627
scalar test1.node[25].veinsmobility 	minSpeed 	4.041447559022
scalar test1.node[25].veinsmobility 	maxSpeed 	13.338586840564
scalar test1.node[25].veinsmobility 	totalDistance 	73.738540122264
scalar test1.node[25].veinsmobility 	totalCO2Emission 	33.855181480799
scalar test1.node[26].appl 	generatedWSMs 	0
scalar test1.node[26].appl 	receivedWSMs 	0
scalar test1.node[26].appl 	generatedBSMs 	0
scalar test1.node[26].appl 	receivedBSMs 	0
scalar test1.node[26].appl 	generatedWSAs 	0
scalar test1.node[26].appl 	receivedWSAs 	0
scalar test1.node[26].appl 	generatedCWSMs 	31
scalar test1.node[26].appl 	receivedCWSMs 	31
scalar test1.node[26].nic.phy80211p 	busyTime 	0.0011596709545282
scalar test1.node[26].nic.mac1609_4 	ReceivedUnicastPackets 	0
scalar test1.node[26].nic.mac1609_4 	ReceivedBroadcasts 	31
scalar test1.node[26].nic.mac1609_4 	SentPackets 	31
scalar test1.node[26].nic.mac1609_4 	SNIRLostPackets 	4
scalar test1.node[26].nic.mac1609_4 	RXTXLostPackets 	5
scalar test1.node[26].nic.mac1609_4 	TotalLostPackets 	9
scalar test1.node[26].nic.mac1609_4 	DroppedPacketsInMac 	0
scalar test1.node[26].nic.mac1609_4 	TooLittleTime 	0
scalar test1.node[26].nic.mac1609_4 	TimesIntoBackoff 	31
scalar test1.node[26].nic.mac1609_4 	SlotsBackoff 	49
scalar test1.node[26].nic.mac1609_4 	NumInternalContention 	0
scalar test1.node[26].nic.mac1609_4 	totalBusyTime 	0.014879
scalar test1.node[26].veinsmobility 	startTime 	29
scalar test1.node[26].veinsmobility 	totalTime 	7
scalar test1.node[26].veinsmobility 	stopTime 	36.001986182627
scalar test1.node[26].veinsmobility 	minSpeed 	0.43257705870783
scalar test1.node[26].veinsmobility 	maxSpeed 	5.4785485225879
scalar test1.node[26].veinsmobility 	totalDistance 	22.262131203765
scalar test1.node[26].veinsmobility 	totalCO2Emission 	8.7517476491019
scalar test1.node[27].appl 	generatedWSMs 	0
scalar test1.node[27].appl 	receivedWSMs 	0
scalar test1.node[27].appl 	generatedBSMs 	0
scalar test1.node[27].appl 	receivedBSMs 	0
scalar test1.node[27].appl 	generatedWSAs 	0
scalar test1.node[27].appl 	receivedWSAs 	0
scalar test1.node[27].appl 	generatedCWSMs 	26
scalar test1.node[27].appl 	receivedCWSMs 	38
scalar test1.node[27].nic.phy80211p 	busyTime 	0.0015075009712934
scalar test1.node[27].nic.mac1609_4 	ReceivedUnicastPackets 	0
scalar test1.node[27].nic.mac1609_4 	ReceivedBroadcasts 	38
scalar test1.node[27].nic.mac1609_4 	SentPackets 	26
scalar test1.node[27].nic.mac1609_4 	SNIRLostPackets 	1
scalar test1.node[27].nic.mac1609_4 	RXTXLostPackets 	4
scalar test1.node[27].nic.mac1609_4 	TotalLostPackets 	5
scalar test1.node[27].nic.mac1609_4 	DroppedPacketsInMac 	0
scalar test1.node[27].nic.mac1609_4 	TooLittleTime 	0
scalar test1.node[27].nic.mac1609_4 	TimesIntoBackoff 	26
scalar test1.node[27].nic.mac1609_4 	SlotsBackoff 	47
scalar test1.node[27].nic.mac1609_4 	NumInternalContention 	0
scalar test1.node[27].nic.mac1609_4 	totalBusyTime 	0.015106
scalar test1.node[27].veinsmobility 	startTime 	30
scalar test1.node[27].veinsmobility 	totalTime 	6
scalar test1.node[27].veinsmobility 	stopTime 	36.001986182627
scalar test1.node[27].veinsmobility 	minSpeed 	3.9967244083965
scalar test1.node[27].veinsmobility 	maxSpeed 	13.40874060798
scalar test1.node[27].veinsmobility 	totalDistance 	47.939615586871
scalar test1.node[27].veinsmobility 	totalCO2Emission 	30.346785598361
scalar test1.node[2].appl 	generatedWSMs 	0
scalar test1.node[2].appl 	receivedWSMs 	0
scalar test1.node[2].appl 	generatedBSMs 	0
scalar test1.node[2].appl 	receivedBSMs 	0
scalar test1.node[2].appl 	generatedWSAs 	0
scalar test1.node[2].appl 	receivedWSAs 	0
scalar test1.node[2].appl 	generatedCWSMs 	156
scalar test1.node[2].appl 	receivedCWSMs 	132
scalar test1.node[2].nic.phy80211p 	busyTime 	0.0014209118065517
scalar test1.node[2].nic.mac1609_4 	ReceivedUnicastPackets 	0
scalar test1.node[2].nic.mac1609_4 	ReceivedBroadcasts 	132
scalar test1.node[2].nic.mac1609_4 	SentPackets 	156
scalar test1.node[2].nic.mac1609_4 	SNIRLostPackets 	63
scalar test1.node[2].nic.mac1609_4 	RXTXLostPackets 	54
scalar test1.node[2].nic.mac1609_4 	TotalLostPackets 	117
scalar test1.node[2].nic.mac1609_4 	DroppedPacketsInMac 	0
scalar test1.node[2].nic.mac1609_4 	TooLittleTime 	0
scalar test1.node[2].nic.mac1609_4 	TimesIntoBackoff 	156
scalar test1.node[2].nic.mac1609_4 	SlotsBackoff 	233
scalar test1.node[2].nic.mac1609_4 	NumInternalContention 	0
scalar test1.node[2].nic.mac1609_4 	totalBusyTime 	0.073932
scalar test1.node[2].veinsmobility 	startTime 	4
scalar test1.node[2].veinsmobility 	totalTime 	32
scalar test1.node[2].veinsmobility 	stopTime 	36.001986182627
scalar test1.node[2].veinsmobility 	minSpeed 	4.5794708464622e-14
scalar test1.node[2].veinsmobility 	maxSpeed 	13.406782099754
scalar test1.node[2].veinsmobility 	totalDistance 	212.24479347448
scalar test1.node[2].veinsmobility 	totalCO2Emission 	65.479092883104
scalar test1.node[28].appl 	generatedWSMs 	0
scalar test1.node[28].appl 	receivedWSMs 	0
scalar test1.node[28].appl 	generatedBSMs 	0
scalar test1.node[28].appl 	receivedBSMs 	0
scalar test1.node[28].appl 	generatedWSAs 	0
scalar test1.node[28].appl 	receivedWSAs 	0
scalar test1.node[28].appl 	generatedCWSMs 	15
scalar test1.node[28].appl 	receivedCWSMs 	11
scalar test1.node[28].nic.phy80211p 	busyTime 	0.00051019733098497
scalar test1.node[28].nic.mac1609_4 	ReceivedUnicastPackets 	0
scalar test1.node[28].nic.mac1609_4 	ReceivedBroadcasts 	11
scalar test1.node[28].nic.mac1609_4 	SentPackets 	15
scalar test1.node[28].nic.mac1609_4 	SNIRLostPackets 	0
scalar test1.node[28].nic.mac1609_4 	RXTXLostPackets 	1
scalar test1.node[28].nic.mac1609_4 	TotalLostPackets 	1
scalar test1.node[28].nic.mac1609_4 	DroppedPacketsInMac 	0
scalar test1.node[28].nic.mac1609_4 	TooLittleTime 	0
scalar test1.node[28].nic.mac1609_4 	TimesIntoBackoff 	15
scalar test1.node[28].nic.mac1609_4 	SlotsBackoff 	23
scalar test1.node[28].nic.mac1609_4 	NumInternalContention 	0
scalar test1.node[28].nic.mac1609_4 	totalBusyTime 	0.006047
scalar test1.node[28].veinsmobility 	startTime 	31
scalar test1.node[28].veinsmobility 	totalTime 	5
scalar test1.node[28].veinsmobility 	stopTime 	36.001986182627
scalar test1.node[28].veinsmobility 	minSpeed 	3.763948018364
scalar test1.node[28].veinsmobility 	maxSpeed 	11.431152852794
scalar test1.node[28].veinsmobility 	totalDistance 	33.792480132684
scalar test1.node[28].veinsmobility 	totalCO2Emission 	22.188478445942
scalar test1.node[29].appl 	generatedWSMs 	0
scalar test1.node[29].appl 	receivedWSMs 	0
scalar test1.node[29].appl 	generatedBSMs 	0
scalar test1.node[29].appl 	receivedBSMs 	0
scalar test1.node[29].appl 	generatedWSAs 	0
scalar test1.node[29].appl 	receivedWSAs 	0
scalar test1.node[29].appl 	generatedCWSMs 	16
scalar test1.node[29].appl 	receivedCWSMs 	57
scalar test1.node[29].nic.phy80211p 	busyTime 	0.0046956683862573
scalar test1.node[29].nic.mac1609_4 	ReceivedUnicastPackets 	0
scalar test1.node[29].nic.mac1609_4 	ReceivedBroadcasts 	57
scalar test1.node[29].nic.mac1609_4 	SentPackets 	15
scalar test1.node[29].nic.mac1609_4 	SNIRLostPackets 	24
scalar test1.node[29].nic.mac1609_4 	RXTXLostPackets 	11
scalar test1.node[29].nic.mac1609_4 	TotalLostPackets 	35
scalar test1.node[29].nic.mac1609_4 	DroppedPacketsInMac 	0
scalar test1.node[29].nic.mac1609_4 	TooLittleTime 	0
scalar test1.node[29].nic.mac1609_4 	TimesIntoBackoff 	15
scalar test1.node[29].nic.mac1609_4 	SlotsBackoff 	25
scalar test1.node[29].nic.mac1609_4 	NumInternalContention 	0
scalar test1.node[29].nic.mac1609_4 	totalBusyTime 	0.018807
scalar test1.node[29].veinsmobility 	startTime 	32
scalar test1.node[29].veinsmobility 	totalTime 	4
scalar test1.node[29].veinsmobility 	stopTime 	36.001986182627
scalar test1.node[29].veinsmobility 	minSpeed 	4.0476192190012
scalar test1.node[29].veinsmobility 	maxSpeed 	9.7358093027866
scalar test1.node[29].veinsmobility 	totalDistance 	24.248686933607
scalar test1.node[29].veinsmobility 	totalCO2Emission 	15.367524284423
scalar test1.node[30].appl 	generatedWSMs 	0
scalar test1.node[30].appl 	receivedWSMs 	0
scalar test1.node[30].appl 	generatedBSMs 	0
scalar test1.node[30].appl 	receivedBSMs 	0
scalar test1.node[30].appl 	generatedWSAs 	0
scalar test1.node[30].appl 	receivedWSAs 	0
scalar test1.node[30].appl 	generatedCWSMs 	11
scalar test1.node[30].appl 	receivedCWSMs 	27
scalar test1.node[30].nic.phy80211p 	busyTime 	0.0029367223776777
scalar test1.node[30].nic.mac1609_4 	ReceivedUnicastPackets 	0
scalar test1.node[30].nic.mac1609_4 	ReceivedBroadcasts 	27
scalar test1.node[30].nic.mac1609_4 	SentPackets 	11
scalar test1.node[30].nic.mac1609_4 	SNIRLostPackets 	11
scalar test1.node[30].nic.mac1609_4 	RXTXLostPackets 	6
scalar test1.node[30].nic.mac1609_4 	TotalLostPackets 	17
scalar test1.node[30].nic.mac1609_4 	DroppedPacketsInMac 	0
scalar test1.node[30].nic.mac1609_4 	TooLittleTime 	0
scalar test1.node[30].nic.mac1609_4 	TimesIntoBackoff 	10
scalar test1.node[30].nic.mac1609_4 	SlotsBackoff 	13
scalar test1.node[30].nic.mac1609_4 	NumInternalContention 	0
scalar test1.node[30].nic.mac1609_4 	totalBusyTime 	0.010218
scalar test1.node[30].veinsmobility 	startTime 	33
scalar test1.node[30].veinsmobility 	totalTime 	3
scalar test1.node[30].veinsmobility 	stopTime 	36.001986182627
scalar test1.node[30].veinsmobility 	minSpeed 	3.9644157375106
scalar test1.node[30].veinsmobility 	maxSpeed 	7.6266365389306
scalar test1.node[30].veinsmobility 	totalDistance 	14.934261568344
scalar test1.node[30].veinsmobility 	totalCO2Emission 	8.8546167950883
scalar test1.node[31].appl 	generatedWSMs 	0
scalar test1.node[31].appl 	receivedWSMs 	0
scalar test1.node[31].appl 	generatedBSMs 	0
scalar test1.node[31].appl 	receivedBSMs 	0
scalar test1.node[31].appl 	generatedWSAs 	0
scalar test1.node[31].appl 	receivedWSAs 	0
scalar test1.node[31].appl 	generatedCWSMs 	6
scalar test1.node[31].appl 	receivedCWSMs 	23
scalar test1.node[31].nic.phy80211p 	busyTime 	0.0046353966278742
scalar test1.node[31].nic.mac1609_4 	ReceivedUnicastPackets 	0
scalar test1.node[31].nic.mac1609_4 	ReceivedBroadcasts 	23
scalar test1.node[31].nic.mac1609_4 	SentPackets 	6
scalar test1.node[31].nic.mac1609_4 	SNIRLostPackets 	16
scalar test1.node[31].nic.mac1609_4 	RXTXLostPackets 	6
scalar test1.node[31].nic.mac1609_4 	TotalLostPackets 	22
scalar test1.node[31].nic.mac1609_4 	DroppedPacketsInMac 	0
scalar test1.node[31].nic.mac1609_4 	TooLittleTime 	0
scalar test1.node[31].nic.mac1609_4 	TimesIntoBackoff 	6
scalar test1.node[31].nic.mac1609_4 	SlotsBackoff 	6
scalar test1.node[31].nic.mac1609_4 	NumInternalContention 	0
scalar test1.node[31].nic.mac1609_4 	totalBusyTime 	0.008358
scalar test1.node[31].veinsmobility 	startTime 	34
scalar test1.node[31].veinsmobility 	totalTime 	2
scalar test1.node[31].veinsmobility 	stopTime 	36.001986182627
scalar test1.node[31].veinsmobility 	minSpeed 	4.0979579440085
scalar test1.node[31].veinsmobility 	maxSpeed 	6.1303287124773
scalar test1.node[31].veinsmobility 	totalDistance 	8.3459388386252
scalar test1.node[31].veinsmobility 	totalCO2Emission 	4.4296529338299
scalar test1.node[32].appl 	generatedWSMs 	0
scalar test1.node[32].appl 	receivedWSMs 	0
scalar test1.node[32].appl 	generatedBSMs 	0
scalar test1.node[32].appl 	receivedBSMs 	0
scalar test1.node[32].appl 	generatedWSAs 	0
scalar test1.node[32].appl 	receivedWSAs 	0
scalar test1.node[32].appl 	generatedCWSMs 	3
scalar test1.node[32].appl 	receivedCWSMs 	6
scalar test1.node[32].nic.phy80211p 	busyTime 	0.0023154011903811
scalar test1.node[32].nic.mac1609_4 	ReceivedUnicastPackets 	0
scalar test1.node[32].nic.mac1609_4 	ReceivedBroadcasts 	6
scalar test1.node[32].nic.mac1609_4 	SentPackets 	3
scalar test1.node[32].nic.mac1609_4 	SNIRLostPackets 	4
scalar test1.node[32].nic.mac1609_4 	RXTXLostPackets 	0
scalar test1.node[32].nic.mac1609_4 	TotalLostPackets 	4
scalar test1.node[32].nic.mac1609_4 	DroppedPacketsInMac 	0
scalar test1.node[32].nic.mac1609_4 	TooLittleTime 	0
scalar test1.node[32].nic.mac1609_4 	TimesIntoBackoff 	3
scalar test1.node[32].nic.mac1609_4 	SlotsBackoff 	4
scalar test1.node[32].nic.mac1609_4 	NumInternalContention 	0
scalar test1.node[32].nic.mac1609_4 	totalBusyTime 	0.003019
scalar test1.node[32].veinsmobility 	startTime 	35
scalar test1.node[32].veinsmobility 	totalTime 	1
scalar test1.node[32].veinsmobility 	stopTime 	36.001986182627
scalar test1.node[32].veinsmobility 	minSpeed 	4.0497394704054
scalar test1.node[32].veinsmobility 	maxSpeed 	4.0497394704054
scalar test1.node[32].veinsmobility 	totalDistance 	3.1915717082623
scalar test1.node[32].veinsmobility 	totalCO2Emission 	0
scalar test1.node[33].appl 	generatedWSMs 	0
scalar test1.node[33].appl 	receivedWSMs 	0
scalar test1.node[33].appl 	generatedBSMs 	0
scalar test1.node[33].appl 	receivedBSMs 	0
scalar test1.node[33].appl 	generatedWSAs 	0
scalar test1.node[33].appl 	receivedWSAs 	0
scalar test1.node[33].appl 	generatedCWSMs 	0
scalar test1.node[33].appl 	receivedCWSMs 	2
scalar test1.node[33].nic.phy80211p 	busyTime 	0.70084189695211
scalar test1.node[33].nic.mac1609_4 	ReceivedUnicastPackets 	0
scalar test1.node[33].nic.mac1609_4 	ReceivedBroadcasts 	2
scalar test1.node[33].nic.mac1609_4 	SentPackets 	0
scalar test1.node[33].nic.mac1609_4 	SNIRLostPackets 	4
scalar test1.node[33].nic.mac1609_4 	RXTXLostPackets 	0
scalar test1.node[33].nic.mac1609_4 	TotalLostPackets 	4
scalar test1.node[33].nic.mac1609_4 	DroppedPacketsInMac 	0
scalar test1.node[33].nic.mac1609_4 	TooLittleTime 	0
scalar test1.node[33].nic.mac1609_4 	TimesIntoBackoff 	0
scalar test1.node[33].nic.mac1609_4 	SlotsBackoff 	0
scalar test1.node[33].nic.mac1609_4 	NumInternalContention 	0
scalar test1.node[33].nic.mac1609_4 	totalBusyTime 	0.000928
scalar test1.node[33].veinsmobility 	startTime 	36
scalar test1.node[33].veinsmobility 	totalTime 	0
scalar test1.node[33].veinsmobility 	stopTime 	36.001986182627
scalar test1.node[33].veinsmobility 	totalDistance 	0
scalar test1.node[33].veinsmobility 	totalCO2Emission 	0
scalar test1.node[3].appl 	generatedWSMs 	0
scalar test1.node[3].appl 	receivedWSMs 	0
scalar test1.node[3].appl 	generatedBSMs 	0
scalar test1.node[3].appl 	receivedBSMs 	0
scalar test1.node[3].appl 	generatedWSAs 	0
scalar test1.node[3].appl 	receivedWSAs 	0
scalar test1.node[3].appl 	generatedCWSMs 	121
scalar test1.node[3].appl 	receivedCWSMs 	35
scalar test1.node[3].nic.phy80211p 	busyTime 	0.00041906992421281
scalar test1.node[3].nic.mac1609_4 	ReceivedUnicastPackets 	0
scalar test1.node[3].nic.mac1609_4 	ReceivedBroadcasts 	35
scalar test1.node[3].nic.mac1609_4 	SentPackets 	121
scalar test1.node[3].nic.mac1609_4 	SNIRLostPackets 	21
scalar test1.node[3].nic.mac1609_4 	RXTXLostPackets 	15
scalar test1.node[3].nic.mac1609_4 	TotalLostPackets 	36
scalar test1.node[3].nic.mac1609_4 	DroppedPacketsInMac 	0
scalar test1.node[3].nic.mac1609_4 	TooLittleTime 	0
scalar test1.node[3].nic.mac1609_4 	TimesIntoBackoff 	121
scalar test1.node[3].nic.mac1609_4 	SlotsBackoff 	163
scalar test1.node[3].nic.mac1609_4 	NumInternalContention 	0
scalar test1.node[3].nic.mac1609_4 	totalBusyTime 	0.038401
scalar test1.node[3].veinsmobility 	startTime 	5
scalar test1.node[3].veinsmobility 	totalTime 	31
scalar test1.node[3].veinsmobility 	stopTime 	36.001986182627
scalar test1.node[3].veinsmobility 	minSpeed 	3.1460245376977
scalar test1.node[3].veinsmobility 	maxSpeed 	13.40841774872
scalar test1.node[3].veinsmobility 	totalDistance 	313.2640431009
scalar test1.node[3].veinsmobility 	totalCO2Emission 	91.354147552942
scalar test1.node[4].appl 	generatedWSMs 	0
scalar test1.node[4].appl 	receivedWSMs 	0
scalar test1.node[4].appl 	generatedBSMs 	0
scalar test1.node[4].appl 	receivedBSMs 	0
scalar test1.node[4].appl 	generatedWSAs 	0
scalar test1.node[4].appl 	receivedWSAs 	0
scalar test1.node[4].appl 	generatedCWSMs 	144
scalar test1.node[4].appl 	receivedCWSMs 	80
scalar test1.node[4].nic.phy80211p 	busyTime 	0.00081967906558934
scalar test1.node[4].nic.mac1609_4 	ReceivedUnicastPackets 	0
scalar test1.node[4].nic.mac1609_4 	ReceivedBroadcasts 	80
scalar test1.node[4].nic.mac1609_4 	SentPackets 	144
scalar test1.node[4].nic.mac1609_4 	SNIRLostPackets 	26
scalar test1.node[4].nic.mac1609_4 	RXTXLostPackets 	18
scalar test1.node[4].nic.mac1609_4 	TotalLostPackets 	44
scalar test1.node[4].nic.mac1609_4 	DroppedPacketsInMac 	0
scalar test1.node[4].nic.mac1609_4 	TooLittleTime 	0
scalar test1.node[4].nic.mac1609_4 	TimesIntoBackoff 	143
scalar test1.node[4].nic.mac1609_4 	SlotsBackoff 	221
scalar test1.node[4].nic.mac1609_4 	NumInternalContention 	0
scalar test1.node[4].nic.mac1609_4 	totalBusyTime 	0.054199
scalar test1.node[4].veinsmobility 	startTime 	6
scalar test1.node[4].veinsmobility 	totalTime 	30
scalar test1.node[4].veinsmobility 	stopTime 	36.001986182627
scalar test1.node[4].veinsmobility 	minSpeed 	3.5325703715188
scalar test1.node[4].veinsmobility 	maxSpeed 	13.400924139919
scalar test1.node[4].veinsmobility 	totalDistance 	276.90716566936
scalar test1.node[4].veinsmobility 	totalCO2Emission 	91.930376106266
scalar test1.node[5].appl 	generatedWSMs 	0
scalar test1.node[5].appl 	receivedWSMs 	0
scalar test1.node[5].appl 	generatedBSMs 	0
scalar test1.node[5].appl 	receivedBSMs 	0
scalar test1.node[5].appl 	generatedWSAs 	0
scalar test1.node[5].appl 	receivedWSAs 	0
scalar test1.node[5].appl 	generatedCWSMs 	141
scalar test1.node[5].appl 	receivedCWSMs 	133
scalar test1.node[5].nic.phy80211p 	busyTime 	0.0011519211060107
scalar test1.node[5].nic.mac1609_4 	ReceivedUnicastPackets 	0
scalar test1.node[5].nic.mac1609_4 	ReceivedBroadcasts 	133
scalar test1.node[5].nic.mac1609_4 	SentPackets 	140
scalar test1.node[5].nic.mac1609_4 	SNIRLostPackets 	10
scalar test1.node[5].nic.mac1609_4 	RXTXLostPackets 	40
scalar test1.node[5].nic.mac1609_4 	TotalLostPackets 	50
scalar test1.node[5].nic.mac1609_4 	DroppedPacketsInMac 	0
scalar test1.node[5].nic.mac1609_4 	TooLittleTime 	0
scalar test1.node[5].nic.mac1609_4 	TimesIntoBackoff 	140
scalar test1.node[5].nic.mac1609_4 	SlotsBackoff 	184
scalar test1.node[5].nic.mac1609_4 	NumInternalContention 	0
scalar test1.node[5].nic.mac1609_4 	totalBusyTime 	0.064636
scalar test1.node[5].veinsmobility 	startTime 	7
scalar test1.node[5].veinsmobility 	totalTime 	29
scalar test1.node[5].veinsmobility 	stopTime 	36.001986182627
scalar test1.node[5].veinsmobility 	minSpeed 	3.9803457026608
scalar test1.node[5].veinsmobility 	maxSpeed 	13.404676377801
scalar test1.node[5].veinsmobility 	totalDistance 	267.95884023349
scalar test1.node[5].veinsmobility 	totalCO2Emission 	107.34430059841
scalar test1.node[6].appl 	generatedWSMs 	0
scalar test1.node[6].appl 	receivedWSMs 	0
scalar test1.node[6].appl 	generatedBSMs 	0
scalar test1.node[6].appl 	receivedBSMs 	0
scalar test1.node[6].appl 	generatedWSAs 	0
scalar test1.node[6].appl 	receivedWSAs 	0
scalar test1.node[6].appl 	generatedCWSMs 	132
scalar test1.node[6].appl 	receivedCWSMs 	38
scalar test1.node[6].nic.phy80211p 	busyTime 	0.00031483481002036
scalar test1.node[6].nic.mac1609_4 	ReceivedUnicastPackets 	0
scalar test1.node[6].nic.mac1609_4 	ReceivedBroadcasts 	38
scalar test1.node[6].nic.mac1609_4 	SentPackets 	132
scalar test1.node[6].nic.mac1609_4 	SNIRLostPackets 	0
scalar test1.node[6].nic.mac1609_4 	RXTXLostPackets 	12
scalar test1.node[6].nic.mac1609_4 	TotalLostPackets 	12
scalar test1.node[6].nic.mac1609_4 	DroppedPacketsInMac 	0
scalar test1.node[6].nic.mac1609_4 	TooLittleTime 	0
scalar test1.node[6].nic.mac1609_4 	TimesIntoBackoff 	132
scalar test1.node[6].nic.mac1609_4 	SlotsBackoff 	190
scalar test1.node[6].nic.mac1609_4 	NumInternalContention 	0
scalar test1.node[6].nic.mac1609_4 	totalBusyTime 	0.039572
scalar test1.node[6].veinsmobility 	startTime 	8
scalar test1.node[6].veinsmobility 	totalTime 	28
scalar test1.node[6].veinsmobility 	stopTime 	36.001986182627
scalar test1.node[6].veinsmobility 	minSpeed 	3.5359826369711
scalar test1.node[6].veinsmobility 	maxSpeed 	13.392471839499
scalar test1.node[6].veinsmobility 	totalDistance 	293.42718558662
scalar test1.node[6].veinsmobility 	totalCO2Emission 	71.084698177714
scalar test1.node[7].appl 	generatedWSMs 	0
scalar test1.node[7].appl 	receivedWSMs 	0
scalar test1.node[7].appl 	generatedBSMs 	0
scalar test1.node[7].appl 	receivedBSMs 	0
scalar test1.node[7].appl 	generatedWSAs 	0
scalar test1.node[7].appl 	receivedWSAs 	0
scalar test1.node[7].appl 	generatedCWSMs 	131
scalar test1.node[7].appl 	receivedCWSMs 	170
scalar test1.node[7].nic.phy80211p 	busyTime 	0.0019331911233102
scalar test1.node[7].nic.mac1609_4 	ReceivedUnicastPackets 	0
scalar test1.node[7].nic.mac1609_4 	ReceivedBroadcasts 	170
scalar test1.node[7].nic.mac1609_4 	SentPackets 	131
scalar test1.node[7].nic.mac1609_4 	SNIRLostPackets 	55
scalar test1.node[7].nic.mac1609_4 	RXTXLostPackets 	58
scalar test1.node[7].nic.mac1609_4 	TotalLostPackets 	113
scalar test1.node[7].nic.mac1609_4 	DroppedPacketsInMac 	0
scalar test1.node[7].nic.mac1609_4 	TooLittleTime 	0
scalar test1.node[7].nic.mac1609_4 	TimesIntoBackoff 	131
scalar test1.node[7].nic.mac1609_4 	SlotsBackoff 	196
scalar test1.node[7].nic.mac1609_4 	NumInternalContention 	0
scalar test1.node[7].nic.mac1609_4 	totalBusyTime 	0.073443
scalar test1.node[7].veinsmobility 	startTime 	9
scalar test1.node[7].veinsmobility 	totalTime 	27
scalar test1.node[7].veinsmobility 	stopTime 	36.001986182627
scalar test1.node[7].veinsmobility 	minSpeed 	3.5517413088987
scalar test1.node[7].veinsmobility 	maxSpeed 	13.889029118798
scalar test1.node[7].veinsmobility 	totalDistance 	251.62580158211
scalar test1.node[7].veinsmobility 	totalCO2Emission 	89.49866952316
scalar test1.rsu[0].nic.phy80211p 	busyTime 	0.00022554311194971
scalar test1.rsu[0].nic.mac1609_4 	ReceivedUnicastPackets 	0
scalar test1.rsu[0].nic.mac1609_4 	ReceivedBroadcasts 	35
scalar test1.rsu[0].nic.mac1609_4 	SentPackets 	35
scalar test1.rsu[0].nic.mac1609_4 	SNIRLostPackets 	0
scalar test1.rsu[0].nic.mac1609_4 	RXTXLostPackets 	0
scalar test1.rsu[0].nic.mac1609_4 	TotalLostPackets 	0
scalar test1.rsu[0].nic.mac1609_4 	DroppedPacketsInMac 	0
scalar test1.rsu[0].nic.mac1609_4 	TooLittleTime 	0
scalar test1.rsu[0].nic.mac1609_4 	TimesIntoBackoff 	35
scalar test1.rsu[0].nic.mac1609_4 	SlotsBackoff 	102
scalar test1.rsu[0].nic.mac1609_4 	NumInternalContention 	0
scalar test1.rsu[0].nic.mac1609_4 	totalBusyTime 	0.016275
scalar test1.rsu[0].appl 	generatedWSMs 	0
scalar test1.rsu[0].appl 	receivedWSMs 	0
scalar test1.rsu[0].appl 	generatedBSMs 	0
scalar test1.rsu[0].appl 	receivedBSMs 	0
scalar test1.rsu[0].appl 	generatedWSAs 	0
scalar test1.rsu[0].appl 	receivedWSAs 	0
scalar test1.rsu[0].appl 	generatedCWSMs 	35
scalar test1.rsu[0].appl 	receivedCWSMs 	35
scalar test1.rsu[1].nic.phy80211p 	busyTime 	0
scalar test1.rsu[1].nic.mac1609_4 	ReceivedUnicastPackets 	0
scalar test1.rsu[1].nic.mac1609_4 	ReceivedBroadcasts 	0
scalar test1.rsu[1].nic.mac1609_4 	SentPackets 	35
scalar test1.rsu[1].nic.mac1609_4 	SNIRLostPackets 	0
scalar test1.rsu[1].nic.mac1609_4 	RXTXLostPackets 	0
scalar test1.rsu[1].nic.mac1609_4 	TotalLostPackets 	0
scalar test1.rsu[1].nic.mac1609_4 	DroppedPacketsInMac 	0
scalar test1.rsu[1].nic.mac1609_4 	TooLittleTime 	0
scalar test1.rsu[1].nic.mac1609_4 	TimesIntoBackoff 	35
scalar test1.rsu[1].nic.mac1609_4 	SlotsBackoff 	121
scalar test1.rsu[1].nic.mac1609_4 	NumInternalContention 	0
scalar test1.rsu[1].nic.mac1609_4 	totalBusyTime 	0.008155
scalar test1.rsu[1].appl 	generatedWSMs 	0
scalar test1.rsu[1].appl 	receivedWSMs 	0
scalar test1.rsu[1].appl 	generatedBSMs 	0
scalar test1.rsu[1].appl 	receivedBSMs 	0
scalar test1.rsu[1].appl 	generatedWSAs 	0
scalar test1.rsu[1].appl 	receivedWSAs 	0
scalar test1.rsu[1].appl 	generatedCWSMs 	35
scalar test1.rsu[1].appl 	receivedCWSMs 	0
scalar test1.rsu[2].nic.phy80211p 	busyTime 	0.00044464213498656
scalar test1.rsu[2].nic.mac1609_4 	ReceivedUnicastPackets 	0
scalar test1.rsu[2].nic.mac1609_4 	ReceivedBroadcasts 	69
scalar test1.rsu[2].nic.mac1609_4 	SentPackets 	34
scalar test1.rsu[2].nic.mac1609_4 	SNIRLostPackets 	0
scalar test1.rsu[2].nic.mac1609_4 	RXTXLostPackets 	0
scalar test1.rsu[2].nic.mac1609_4 	TotalLostPackets 	0
scalar test1.rsu[2].nic.mac1609_4 	DroppedPacketsInMac 	0
scalar test1.rsu[2].nic.mac1609_4 	TooLittleTime 	0
scalar test1.rsu[2].nic.mac1609_4 	TimesIntoBackoff 	34
scalar test1.rsu[2].nic.mac1609_4 	SlotsBackoff 	127
scalar test1.rsu[2].nic.mac1609_4 	NumInternalContention 	0
scalar test1.rsu[2].nic.mac1609_4 	totalBusyTime 	0.02393
scalar test1.rsu[2].appl 	generatedWSMs 	0
scalar test1.rsu[2].appl 	receivedWSMs 	0
scalar test1.rsu[2].appl 	generatedBSMs 	0
scalar test1.rsu[2].appl 	receivedBSMs 	0
scalar test1.rsu[2].appl 	generatedWSAs 	0
scalar test1.rsu[2].appl 	receivedWSAs 	0
scalar test1.rsu[2].appl 	generatedCWSMs 	34
scalar test1.rsu[2].appl 	receivedCWSMs 	69
scalar test1.rsu[3].nic.phy80211p 	busyTime 	0.0013339264049597
scalar test1.rsu[3].nic.mac1609_4 	ReceivedUnicastPackets 	0
scalar test1.rsu[3].nic.mac1609_4 	ReceivedBroadcasts 	153
scalar test1.rsu[3].nic.mac1609_4 	SentPackets 	35
scalar test1.rsu[3].nic.mac1609_4 	SNIRLostPackets 	54
scalar test1.rsu[3].nic.mac1609_4 	RXTXLostPackets 	0
scalar test1.rsu[3].nic.mac1609_4 	TotalLostPackets 	54
scalar test1.rsu[3].nic.mac1609_4 	DroppedPacketsInMac 	0
scalar test1.rsu[3].nic.mac1609_4 	TooLittleTime 	0
scalar test1.rsu[3].nic.mac1609_4 	TimesIntoBackoff 	35
scalar test1.rsu[3].nic.mac1609_4 	SlotsBackoff 	123
scalar test1.rsu[3].nic.mac1609_4 	NumInternalContention 	0
scalar test1.rsu[3].nic.mac1609_4 	totalBusyTime 	0.050379
scalar test1.rsu[3].appl 	generatedWSMs 	0
scalar test1.rsu[3].appl 	receivedWSMs 	0
scalar test1.rsu[3].appl 	generatedBSMs 	0
scalar test1.rsu[3].appl 	receivedBSMs 	0
scalar test1.rsu[3].appl 	generatedWSAs 	0
scalar test1.rsu[3].appl 	receivedWSAs 	0
scalar test1.rsu[3].appl 	generatedCWSMs 	35
scalar test1.rsu[3].appl 	receivedCWSMs 	153
scalar test1.rsu[4].nic.phy80211p 	busyTime 	0.00067018524693627
scalar test1.rsu[4].nic.mac1609_4 	ReceivedUnicastPackets 	0
scalar test1.rsu[4].nic.mac1609_4 	ReceivedBroadcasts 	104
scalar test1.rsu[4].nic.mac1609_4 	SentPackets 	35
scalar test1.rsu[4].nic.mac1609_4 	SNIRLostPackets 	0
scalar test1.rsu[4].nic.mac1609_4 	RXTXLostPackets 	0
scalar test1.rsu[4].nic.mac1609_4 	TotalLostPackets 	0
scalar test1.rsu[4].nic.mac1609_4 	DroppedPacketsInMac 	0
scalar test1.rsu[4].nic.mac1609_4 	TooLittleTime 	0
scalar test1.rsu[4].nic.mac1609_4 	TimesIntoBackoff 	35
scalar test1.rsu[4].nic.mac1609_4 	SlotsBackoff 	107
scalar test1.rsu[4].nic.mac1609_4 	NumInternalContention 	0
scalar test1.rsu[4].nic.mac1609_4 	totalBusyTime 	0.032283
scalar test1.rsu[4].appl 	generatedWSMs 	0
scalar test1.rsu[4].appl 	receivedWSMs 	0
scalar test1.rsu[4].appl 	generatedBSMs 	0
scalar test1.rsu[4].appl 	receivedBSMs 	0
scalar test1.rsu[4].appl 	generatedWSAs 	0
scalar test1.rsu[4].appl 	receivedWSAs 	0
scalar test1.rsu[4].appl 	generatedCWSMs 	35
scalar test1.rsu[4].appl 	receivedCWSMs 	104
scalar test1.rsu[5].nic.phy80211p 	busyTime 	0.00067018524693627
scalar test1.rsu[5].nic.mac1609_4 	ReceivedUnicastPackets 	0
scalar test1.rsu[5].nic.mac1609_4 	ReceivedBroadcasts 	104
scalar test1.rsu[5].nic.mac1609_4 	SentPackets 	35
scalar test1.rsu[5].nic.mac1609_4 	SNIRLostPackets 	0
scalar test1.rsu[5].nic.mac1609_4 	RXTXLostPackets 	0
scalar test1.rsu[5].nic.mac1609_4 	TotalLostPackets 	0
scalar test1.rsu[5].nic.mac1609_4 	DroppedPacketsInMac 	0
scalar test1.rsu[5].nic.mac1609_4 	TooLittleTime 	0
scalar test1.rsu[5].nic.mac1609_4 	TimesIntoBackoff 	35
scalar test1.rsu[5].nic.mac1609_4 	SlotsBackoff 	134
scalar test1.rsu[5].nic.mac1609_4 	NumInternalContention 	0
scalar test1.rsu[5].nic.mac1609_4 	totalBusyTime 	0.032283
scalar test1.rsu[5].appl 	generatedWSMs 	0
scalar test1.rsu[5].appl 	receivedWSMs 	0
scalar test1.rsu[5].appl 	generatedBSMs 	0
scalar test1.rsu[5].appl 	receivedBSMs 	0
scalar test1.rsu[5].appl 	generatedWSAs 	0
scalar test1.rsu[5].appl 	receivedWSAs 	0
scalar test1.rsu[5].appl 	generatedCWSMs 	35
scalar test1.rsu[5].appl 	receivedCWSMs 	104
scalar test1.rsu[6].nic.phy80211p 	busyTime 	0.00022554311194971
scalar test1.rsu[6].nic.mac1609_4 	ReceivedUnicastPackets 	0
scalar test1.rsu[6].nic.mac1609_4 	ReceivedBroadcasts 	35
scalar test1.rsu[6].nic.mac1609_4 	SentPackets 	35
scalar test1.rsu[6].nic.mac1609_4 	SNIRLostPackets 	0
scalar test1.rsu[6].nic.mac1609_4 	RXTXLostPackets 	0
scalar test1.rsu[6].nic.mac1609_4 	TotalLostPackets 	0
scalar test1.rsu[6].nic.mac1609_4 	DroppedPacketsInMac 	0
scalar test1.rsu[6].nic.mac1609_4 	TooLittleTime 	0
scalar test1.rsu[6].nic.mac1609_4 	TimesIntoBackoff 	35
scalar test1.rsu[6].nic.mac1609_4 	SlotsBackoff 	102
scalar test1.rsu[6].nic.mac1609_4 	NumInternalContention 	0
scalar test1.rsu[6].nic.mac1609_4 	totalBusyTime 	0.016275
scalar test1.rsu[6].appl 	generatedWSMs 	0
scalar test1.rsu[6].appl 	receivedWSMs 	0
scalar test1.rsu[6].appl 	generatedBSMs 	0
scalar test1.rsu[6].appl 	receivedBSMs 	0
scalar test1.rsu[6].appl 	generatedWSAs 	0
scalar test1.rsu[6].appl 	receivedWSAs 	0
scalar test1.rsu[6].appl 	generatedCWSMs 	35
scalar test1.rsu[6].appl 	receivedCWSMs 	35
scalar test1.rsu[7].nic.phy80211p 	busyTime 	0.00045108622389941
scalar test1.rsu[7].nic.mac1609_4 	ReceivedUnicastPackets 	0
scalar test1.rsu[7].nic.mac1609_4 	ReceivedBroadcasts 	70
scalar test1.rsu[7].nic.mac1609_4 	SentPackets 	35
scalar test1.rsu[7].nic.mac1609_4 	SNIRLostPackets 	0
scalar test1.rsu[7].nic.mac1609_4 	RXTXLostPackets 	0
scalar test1.rsu[7].nic.mac1609_4 	TotalLostPackets 	0
scalar test1.rsu[7].nic.mac1609_4 	DroppedPacketsInMac 	0
scalar test1.rsu[7].nic.mac1609_4 	TooLittleTime 	0
scalar test1.rsu[7].nic.mac1609_4 	TimesIntoBackoff 	35
scalar test1.rsu[7].nic.mac1609_4 	SlotsBackoff 	137
scalar test1.rsu[7].nic.mac1609_4 	NumInternalContention 	0
scalar test1.rsu[7].nic.mac1609_4 	totalBusyTime 	0.024395
scalar test1.rsu[7].appl 	generatedWSMs 	0
scalar test1.rsu[7].appl 	receivedWSMs 	0
scalar test1.rsu[7].appl 	generatedBSMs 	0
scalar test1.rsu[7].appl 	receivedBSMs 	0
scalar test1.rsu[7].appl 	generatedWSAs 	0
scalar test1.rsu[7].appl 	receivedWSAs 	0
scalar test1.rsu[7].appl 	generatedCWSMs 	35
scalar test1.rsu[7].appl 	receivedCWSMs 	70
scalar test1.rsu[8].nic.phy80211p 	busyTime 	0.00022554311194971
scalar test1.rsu[8].nic.mac1609_4 	ReceivedUnicastPackets 	0
scalar test1.rsu[8].nic.mac1609_4 	ReceivedBroadcasts 	35
scalar test1.rsu[8].nic.mac1609_4 	SentPackets 	35
scalar test1.rsu[8].nic.mac1609_4 	SNIRLostPackets 	0
scalar test1.rsu[8].nic.mac1609_4 	RXTXLostPackets 	0
scalar test1.rsu[8].nic.mac1609_4 	TotalLostPackets 	0
scalar test1.rsu[8].nic.mac1609_4 	DroppedPacketsInMac 	0
scalar test1.rsu[8].nic.mac1609_4 	TooLittleTime 	0
scalar test1.rsu[8].nic.mac1609_4 	TimesIntoBackoff 	35
scalar test1.rsu[8].nic.mac1609_4 	SlotsBackoff 	130
scalar test1.rsu[8].nic.mac1609_4 	NumInternalContention 	0
scalar test1.rsu[8].nic.mac1609_4 	totalBusyTime 	0.016275
scalar test1.rsu[8].appl 	generatedWSMs 	0
scalar test1.rsu[8].appl 	receivedWSMs 	0
scalar test1.rsu[8].appl 	generatedBSMs 	0
scalar test1.rsu[8].appl 	receivedBSMs 	0
scalar test1.rsu[8].appl 	generatedWSAs 	0
scalar test1.rsu[8].appl 	receivedWSAs 	0
scalar test1.rsu[8].appl 	generatedCWSMs 	35
scalar test1.rsu[8].appl 	receivedCWSMs 	35
scalar test1.rsu[9].nic.phy80211p 	busyTime 	0.0016367985838636
scalar test1.rsu[9].nic.mac1609_4 	ReceivedUnicastPackets 	0
scalar test1.rsu[9].nic.mac1609_4 	ReceivedBroadcasts 	208
scalar test1.rsu[9].nic.mac1609_4 	SentPackets 	35
scalar test1.rsu[9].nic.mac1609_4 	SNIRLostPackets 	46
scalar test1.rsu[9].nic.mac1609_4 	RXTXLostPackets 	0
scalar test1.rsu[9].nic.mac1609_4 	TotalLostPackets 	46
scalar test1.rsu[9].nic.mac1609_4 	DroppedPacketsInMac 	0
scalar test1.rsu[9].nic.mac1609_4 	TooLittleTime 	0
scalar test1.rsu[9].nic.mac1609_4 	TimesIntoBackoff 	35
scalar test1.rsu[9].nic.mac1609_4 	SlotsBackoff 	132
scalar test1.rsu[9].nic.mac1609_4 	NumInternalContention 	0
scalar test1.rsu[9].nic.mac1609_4 	totalBusyTime 	0.062211
scalar test1.rsu[9].appl 	generatedWSMs 	0
scalar test1.rsu[9].appl 	receivedWSMs 	0
scalar test1.rsu[9].appl 	generatedBSMs 	0
scalar test1.rsu[9].appl 	receivedBSMs 	0
scalar test1.rsu[9].appl 	generatedWSAs 	0
scalar test1.rsu[9].appl 	receivedWSAs 	0
scalar test1.rsu[9].appl 	generatedCWSMs 	35
scalar test1.rsu[9].appl 	receivedCWSMs 	208
scalar test1.rsu[10].nic.phy80211p 	busyTime 	0.00044464213498656
scalar test1.rsu[10].nic.mac1609_4 	ReceivedUnicastPackets 	0
scalar test1.rsu[10].nic.mac1609_4 	ReceivedBroadcasts 	69
scalar test1.rsu[10].nic.mac1609_4 	SentPackets 	35
scalar test1.rsu[10].nic.mac1609_4 	SNIRLostPackets 	0
scalar test1.rsu[10].nic.mac1609_4 	RXTXLostPackets 	0
scalar test1.rsu[10].nic.mac1609_4 	TotalLostPackets 	0
scalar test1.rsu[10].nic.mac1609_4 	DroppedPacketsInMac 	0
scalar test1.rsu[10].nic.mac1609_4 	TooLittleTime 	0
scalar test1.rsu[10].nic.mac1609_4 	TimesIntoBackoff 	35
scalar test1.rsu[10].nic.mac1609_4 	SlotsBackoff 	123
scalar test1.rsu[10].nic.mac1609_4 	NumInternalContention 	0
scalar test1.rsu[10].nic.mac1609_4 	totalBusyTime 	0.024163
scalar test1.rsu[10].appl 	generatedWSMs 	0
scalar test1.rsu[10].appl 	receivedWSMs 	0
scalar test1.rsu[10].appl 	generatedBSMs 	0
scalar test1.rsu[10].appl 	receivedBSMs 	0
scalar test1.rsu[10].appl 	generatedWSAs 	0
scalar test1.rsu[10].appl 	receivedWSAs 	0
scalar test1.rsu[10].appl 	generatedCWSMs 	35
scalar test1.rsu[10].appl 	receivedCWSMs 	69
scalar test1.rsu[11].nic.phy80211p 	busyTime 	0.00022554311194971
scalar test1.rsu[11].nic.mac1609_4 	ReceivedUnicastPackets 	0
scalar test1.rsu[11].nic.mac1609_4 	ReceivedBroadcasts 	35
scalar test1.rsu[11].nic.mac1609_4 	SentPackets 	35
scalar test1.rsu[11].nic.mac1609_4 	SNIRLostPackets 	0
scalar test1.rsu[11].nic.mac1609_4 	RXTXLostPackets 	0
scalar test1.rsu[11].nic.mac1609_4 	TotalLostPackets 	0
scalar test1.rsu[11].nic.mac1609_4 	DroppedPacketsInMac 	0
scalar test1.rsu[11].nic.mac1609_4 	TooLittleTime 	0
scalar test1.rsu[11].nic.mac1609_4 	TimesIntoBackoff 	35
scalar test1.rsu[11].nic.mac1609_4 	SlotsBackoff 	120
scalar test1.rsu[11].nic.mac1609_4 	NumInternalContention 	0
scalar test1.rsu[11].nic.mac1609_4 	totalBusyTime 	0.016275
scalar test1.rsu[11].appl 	generatedWSMs 	0
scalar test1.rsu[11].appl 	receivedWSMs 	0
scalar test1.rsu[11].appl 	generatedBSMs 	0
scalar test1.rsu[11].appl 	receivedBSMs 	0
scalar test1.rsu[11].appl 	generatedWSAs 	0
scalar test1.rsu[11].appl 	receivedWSAs 	0
scalar test1.rsu[11].appl 	generatedCWSMs 	35
scalar test1.rsu[11].appl 	receivedCWSMs 	35
scalar test1.rsu[12].nic.phy80211p 	busyTime 	0
scalar test1.rsu[12].nic.mac1609_4 	ReceivedUnicastPackets 	0
scalar test1.rsu[12].nic.mac1609_4 	ReceivedBroadcasts 	0
scalar test1.rsu[12].nic.mac1609_4 	SentPackets 	35
scalar test1.rsu[12].nic.mac1609_4 	SNIRLostPackets 	0
scalar test1.rsu[12].nic.mac1609_4 	RXTXLostPackets 	0
scalar test1.rsu[12].nic.mac1609_4 	TotalLostPackets 	0
scalar test1.rsu[12].nic.mac1609_4 	DroppedPacketsInMac 	0
scalar test1.rsu[12].nic.mac1609_4 	TooLittleTime 	0
scalar test1.rsu[12].nic.mac1609_4 	TimesIntoBackoff 	35
scalar test1.rsu[12].nic.mac1609_4 	SlotsBackoff 	125
scalar test1.rsu[12].nic.mac1609_4 	NumInternalContention 	0
scalar test1.rsu[12].nic.mac1609_4 	totalBusyTime 	0.008155
scalar test1.rsu[12].appl 	generatedWSMs 	0
scalar test1.rsu[12].appl 	receivedWSMs 	0
scalar test1.rsu[12].appl 	generatedBSMs 	0
scalar test1.rsu[12].appl 	receivedBSMs 	0
scalar test1.rsu[12].appl 	generatedWSAs 	0
scalar test1.rsu[12].appl 	receivedWSAs 	0
scalar test1.rsu[12].appl 	generatedCWSMs 	35
scalar test1.rsu[12].appl 	receivedCWSMs 	0
scalar test1.rsu[13].nic.phy80211p 	busyTime 	0.00044464213498656
scalar test1.rsu[13].nic.mac1609_4 	ReceivedUnicastPackets 	0
scalar test1.rsu[13].nic.mac1609_4 	ReceivedBroadcasts 	69
scalar test1.rsu[13].nic.mac1609_4 	SentPackets 	35
scalar test1.rsu[13].nic.mac1609_4 	SNIRLostPackets 	0
scalar test1.rsu[13].nic.mac1609_4 	RXTXLostPackets 	0
scalar test1.rsu[13].nic.mac1609_4 	TotalLostPackets 	0
scalar test1.rsu[13].nic.mac1609_4 	DroppedPacketsInMac 	0
scalar test1.rsu[13].nic.mac1609_4 	TooLittleTime 	0
scalar test1.rsu[13].nic.mac1609_4 	TimesIntoBackoff 	35
scalar test1.rsu[13].nic.mac1609_4 	SlotsBackoff 	110
scalar test1.rsu[13].nic.mac1609_4 	NumInternalContention 	0
scalar test1.rsu[13].nic.mac1609_4 	totalBusyTime 	0.024163
scalar test1.rsu[13].appl 	generatedWSMs 	0
scalar test1.rsu[13].appl 	receivedWSMs 	0
scalar test1.rsu[13].appl 	generatedBSMs 	0
scalar test1.rsu[13].appl 	receivedBSMs 	0
scalar test1.rsu[13].appl 	generatedWSAs 	0
scalar test1.rsu[13].appl 	receivedWSAs 	0
scalar test1.rsu[13].appl 	generatedCWSMs 	35
scalar test1.rsu[13].appl 	receivedCWSMs 	69
scalar test1.rsu[14].nic.phy80211p 	busyTime 	0.0013532586716982
scalar test1.rsu[14].nic.mac1609_4 	ReceivedUnicastPackets 	0
scalar test1.rsu[14].nic.mac1609_4 	ReceivedBroadcasts 	210
scalar test1.rsu[14].nic.mac1609_4 	SentPackets 	34
scalar test1.rsu[14].nic.mac1609_4 	SNIRLostPackets 	0
scalar test1.rsu[14].nic.mac1609_4 	RXTXLostPackets 	0
scalar test1.rsu[14].nic.mac1609_4 	TotalLostPackets 	0
scalar test1.rsu[14].nic.mac1609_4 	DroppedPacketsInMac 	0
scalar test1.rsu[14].nic.mac1609_4 	TooLittleTime 	0
scalar test1.rsu[14].nic.mac1609_4 	TimesIntoBackoff 	34
scalar test1.rsu[14].nic.mac1609_4 	SlotsBackoff 	102
scalar test1.rsu[14].nic.mac1609_4 	NumInternalContention 	0
scalar test1.rsu[14].nic.mac1609_4 	totalBusyTime 	0.056642
scalar test1.rsu[14].appl 	generatedWSMs 	0
scalar test1.rsu[14].appl 	receivedWSMs 	0
scalar test1.rsu[14].appl 	generatedBSMs 	0
scalar test1.rsu[14].appl 	receivedBSMs 	0
scalar test1.rsu[14].appl 	generatedWSAs 	0
scalar test1.rsu[14].appl 	receivedWSAs 	0
scalar test1.rsu[14].appl 	generatedCWSMs 	34
scalar test1.rsu[14].appl 	receivedCWSMs 	210
scalar test1.rsu[15].nic.phy80211p 	busyTime 	0.00022554311194971
scalar test1.rsu[15].nic.mac1609_4 	ReceivedUnicastPackets 	0
scalar test1.rsu[15].nic.mac1609_4 	ReceivedBroadcasts 	35
scalar test1.rsu[15].nic.mac1609_4 	SentPackets 	35
scalar test1.rsu[15].nic.mac1609_4 	SNIRLostPackets 	0
scalar test1.rsu[15].nic.mac1609_4 	RXTXLostPackets 	0
scalar test1.rsu[15].nic.mac1609_4 	TotalLostPackets 	0
scalar test1.rsu[15].nic.mac1609_4 	DroppedPacketsInMac 	0
scalar test1.rsu[15].nic.mac1609_4 	TooLittleTime 	0
scalar test1.rsu[15].nic.mac1609_4 	TimesIntoBackoff 	35
scalar test1.rsu[15].nic.mac1609_4 	SlotsBackoff 	130
scalar test1.rsu[15].nic.mac1609_4 	NumInternalContention 	0
scalar test1.rsu[15].nic.mac1609_4 	totalBusyTime 	0.016275
scalar test1.rsu[15].appl 	generatedWSMs 	0
scalar test1.rsu[15].appl 	receivedWSMs 	0
scalar test1.rsu[15].appl 	generatedBSMs 	0
scalar test1.rsu[15].appl 	receivedBSMs 	0
scalar test1.rsu[15].appl 	generatedWSAs 	0
scalar test1.rsu[15].appl 	receivedWSAs 	0
scalar test1.rsu[15].appl 	generatedCWSMs 	35
scalar test1.rsu[15].appl 	receivedCWSMs 	35
scalar test1.rsu[16].nic.phy80211p 	busyTime 	0
scalar test1.rsu[16].nic.mac1609_4 	ReceivedUnicastPackets 	0
scalar test1.rsu[16].nic.mac1609_4 	ReceivedBroadcasts 	0
scalar test1.rsu[16].nic.mac1609_4 	SentPackets 	35
scalar test1.rsu[16].nic.mac1609_4 	SNIRLostPackets 	0
scalar test1.rsu[16].nic.mac1609_4 	RXTXLostPackets 	0
scalar test1.rsu[16].nic.mac1609_4 	TotalLostPackets 	0
scalar test1.rsu[16].nic.mac1609_4 	DroppedPacketsInMac 	0
scalar test1.rsu[16].nic.mac1609_4 	TooLittleTime 	0
scalar test1.rsu[16].nic.mac1609_4 	TimesIntoBackoff 	35
scalar test1.rsu[16].nic.mac1609_4 	SlotsBackoff 	100
scalar test1.rsu[16].nic.mac1609_4 	NumInternalContention 	0
scalar test1.rsu[16].nic.mac1609_4 	totalBusyTime 	0.008155
scalar test1.rsu[16].appl 	generatedWSMs 	0
scalar test1.rsu[16].appl 	receivedWSMs 	0
scalar test1.rsu[16].appl 	generatedBSMs 	0
scalar test1.rsu[16].appl 	receivedBSMs 	0
scalar test1.rsu[16].appl 	generatedWSAs 	0
scalar test1.rsu[16].appl 	receivedWSAs 	0
scalar test1.rsu[16].appl 	generatedCWSMs 	35
scalar test1.rsu[16].appl 	receivedCWSMs 	0
scalar test1.rsu[17].nic.phy80211p 	busyTime 	0.00021909902303686
scalar test1.rsu[17].nic.mac1609_4 	ReceivedUnicastPackets 	0
scalar test1.rsu[17].nic.mac1609_4 	ReceivedBroadcasts 	34
scalar test1.rsu[17].nic.mac1609_4 	SentPackets 	34
scalar test1.rsu[17].nic.mac1609_4 	SNIRLostPackets 	0
scalar test1.rsu[17].nic.mac1609_4 	RXTXLostPackets 	0
scalar test1.rsu[17].nic.mac1609_4 	TotalLostPackets 	0
scalar test1.rsu[17].nic.mac1609_4 	DroppedPacketsInMac 	0
scalar test1.rsu[17].nic.mac1609_4 	TooLittleTime 	0
scalar test1.rsu[17].nic.mac1609_4 	TimesIntoBackoff 	34
scalar test1.rsu[17].nic.mac1609_4 	SlotsBackoff 	106
scalar test1.rsu[17].nic.mac1609_4 	NumInternalContention 	0
scalar test1.rsu[17].nic.mac1609_4 	totalBusyTime 	0.01581
scalar test1.rsu[17].appl 	generatedWSMs 	0
scalar test1.rsu[17].appl 	receivedWSMs 	0
scalar test1.rsu[17].appl 	generatedBSMs 	0
scalar test1.rsu[17].appl 	receivedBSMs 	0
scalar test1.rsu[17].appl 	generatedWSAs 	0
scalar test1.rsu[17].appl 	receivedWSAs 	0
scalar test1.rsu[17].appl 	generatedCWSMs 	34
scalar test1.rsu[17].appl 	receivedCWSMs 	34
scalar test1.rsu[18].nic.phy80211p 	busyTime 	0.0011148273819228
scalar test1.rsu[18].nic.mac1609_4 	ReceivedUnicastPackets 	0
scalar test1.rsu[18].nic.mac1609_4 	ReceivedBroadcasts 	169
scalar test1.rsu[18].nic.mac1609_4 	SentPackets 	35
scalar test1.rsu[18].nic.mac1609_4 	SNIRLostPackets 	4
scalar test1.rsu[18].nic.mac1609_4 	RXTXLostPackets 	0
scalar test1.rsu[18].nic.mac1609_4 	TotalLostPackets 	4
scalar test1.rsu[18].nic.mac1609_4 	DroppedPacketsInMac 	0
scalar test1.rsu[18].nic.mac1609_4 	TooLittleTime 	0
scalar test1.rsu[18].nic.mac1609_4 	TimesIntoBackoff 	35
scalar test1.rsu[18].nic.mac1609_4 	SlotsBackoff 	135
scalar test1.rsu[18].nic.mac1609_4 	NumInternalContention 	0
scalar test1.rsu[18].nic.mac1609_4 	totalBusyTime 	0.047827
scalar test1.rsu[18].appl 	generatedWSMs 	0
scalar test1.rsu[18].appl 	receivedWSMs 	0
scalar test1.rsu[18].appl 	generatedBSMs 	0
scalar test1.rsu[18].appl 	receivedBSMs 	0
scalar test1.rsu[18].appl 	generatedWSAs 	0
scalar test1.rsu[18].appl 	receivedWSAs 	0
scalar test1.rsu[18].appl 	generatedCWSMs 	35
scalar test1.rsu[18].appl 	receivedCWSMs 	169
scalar test1.rsu[19].nic.phy80211p 	busyTime 	0.00045108622389941
scalar test1.rsu[19].nic.mac1609_4 	ReceivedUnicastPackets 	0
scalar test1.rsu[19].nic.mac1609_4 	ReceivedBroadcasts 	70
scalar test1.rsu[19].nic.mac1609_4 	SentPackets 	35
scalar test1.rsu[19].nic.mac1609_4 	SNIRLostPackets 	0
scalar test1.rsu[19].nic.mac1609_4 	RXTXLostPackets 	0
scalar test1.rsu[19].nic.mac1609_4 	TotalLostPackets 	0
scalar test1.rsu[19].nic.mac1609_4 	DroppedPacketsInMac 	0
scalar test1.rsu[19].nic.mac1609_4 	TooLittleTime 	0
scalar test1.rsu[19].nic.mac1609_4 	TimesIntoBackoff 	35
scalar test1.rsu[19].nic.mac1609_4 	SlotsBackoff 	133
scalar test1.rsu[19].nic.mac1609_4 	NumInternalContention 	0
scalar test1.rsu[19].nic.mac1609_4 	totalBusyTime 	0.024395
scalar test1.rsu[19].appl 	generatedWSMs 	0
scalar test1.rsu[19].appl 	receivedWSMs 	0
scalar test1.rsu[19].appl 	generatedBSMs 	0
scalar test1.rsu[19].appl 	receivedBSMs 	0
scalar test1.rsu[19].appl 	generatedWSAs 	0
scalar test1.rsu[19].appl 	receivedWSAs 	0
scalar test1.rsu[19].appl 	generatedCWSMs 	35
scalar test1.rsu[19].appl 	receivedCWSMs 	70
scalar test1.rsu[20].nic.phy80211p 	busyTime 	0
scalar test1.rsu[20].nic.mac1609_4 	ReceivedUnicastPackets 	0
scalar test1.rsu[20].nic.mac1609_4 	ReceivedBroadcasts 	0
scalar test1.rsu[20].nic.mac1609_4 	SentPackets 	35
scalar test1.rsu[20].nic.mac1609_4 	SNIRLostPackets 	0
scalar test1.rsu[20].nic.mac1609_4 	RXTXLostPackets 	0
scalar test1.rsu[20].nic.mac1609_4 	TotalLostPackets 	0
scalar test1.rsu[20].nic.mac1609_4 	DroppedPacketsInMac 	0
scalar test1.rsu[20].nic.mac1609_4 	TooLittleTime 	0
scalar test1.rsu[20].nic.mac1609_4 	TimesIntoBackoff 	35
scalar test1.rsu[20].nic.mac1609_4 	SlotsBackoff 	113
scalar test1.rsu[20].nic.mac1609_4 	NumInternalContention 	0
scalar test1.rsu[20].nic.mac1609_4 	totalBusyTime 	0.008155
scalar test1.rsu[20].appl 	generatedWSMs 	0
scalar test1.rsu[20].appl 	receivedWSMs 	0
scalar test1.rsu[20].appl 	generatedBSMs 	0
scalar test1.rsu[20].appl 	receivedBSMs 	0
scalar test1.rsu[20].appl 	generatedWSAs 	0
scalar test1.rsu[20].appl 	receivedWSAs 	0
scalar test1.rsu[20].appl 	generatedCWSMs 	35
scalar test1.rsu[20].appl 	receivedCWSMs 	0
scalar test1.rsu[21].nic.phy80211p 	busyTime 	0.00045108622389941
scalar test1.rsu[21].nic.mac1609_4 	ReceivedUnicastPackets 	0
scalar test1.rsu[21].nic.mac1609_4 	ReceivedBroadcasts 	70
scalar test1.rsu[21].nic.mac1609_4 	SentPackets 	35
scalar test1.rsu[21].nic.mac1609_4 	SNIRLostPackets 	0
scalar test1.rsu[21].nic.mac1609_4 	RXTXLostPackets 	0
scalar test1.rsu[21].nic.mac1609_4 	TotalLostPackets 	0
scalar test1.rsu[21].nic.mac1609_4 	DroppedPacketsInMac 	0
scalar test1.rsu[21].nic.mac1609_4 	TooLittleTime 	0
scalar test1.rsu[21].nic.mac1609_4 	TimesIntoBackoff 	35
scalar test1.rsu[21].nic.mac1609_4 	SlotsBackoff 	122
scalar test1.rsu[21].nic.mac1609_4 	NumInternalContention 	0
scalar test1.rsu[21].nic.mac1609_4 	totalBusyTime 	0.024395
scalar test1.rsu[21].appl 	generatedWSMs 	0
scalar test1.rsu[21].appl 	receivedWSMs 	0
scalar test1.rsu[21].appl 	generatedBSMs 	0
scalar test1.rsu[21].appl 	receivedBSMs 	0
scalar test1.rsu[21].appl 	generatedWSAs 	0
scalar test1.rsu[21].appl 	receivedWSAs 	0
scalar test1.rsu[21].appl 	generatedCWSMs 	35
scalar test1.rsu[21].appl 	receivedCWSMs 	70
scalar test1.rsu[22].nic.phy80211p 	busyTime 	0.0017656803621206
scalar test1.rsu[22].nic.mac1609_4 	ReceivedUnicastPackets 	0
scalar test1.rsu[22].nic.mac1609_4 	ReceivedBroadcasts 	139
scalar test1.rsu[22].nic.mac1609_4 	SentPackets 	35
scalar test1.rsu[22].nic.mac1609_4 	SNIRLostPackets 	135
scalar test1.rsu[22].nic.mac1609_4 	RXTXLostPackets 	0
scalar test1.rsu[22].nic.mac1609_4 	TotalLostPackets 	135
scalar test1.rsu[22].nic.mac1609_4 	DroppedPacketsInMac 	0
scalar test1.rsu[22].nic.mac1609_4 	TooLittleTime 	0
scalar test1.rsu[22].nic.mac1609_4 	TimesIntoBackoff 	35
[...]
scalar test1.rsu[45].appl 	generatedBSMs 	0
scalar test1.rsu[45].appl 	receivedBSMs 	0
scalar test1.rsu[45].appl 	generatedWSAs 	0
scalar test1.rsu[45].appl 	receivedWSAs 	0
scalar test1.rsu[45].appl 	generatedCWSMs 	35
scalar test1.rsu[45].appl 	receivedCWSMs 	0
scalar test1.rsu[46].nic.phy80211p 	busyTime 	0.00045108622389941
scalar test1.rsu[46].nic.mac1609_4 	ReceivedUnicastPackets 	0
scalar test1.rsu[46].nic.mac1609_4 	ReceivedBroadcasts 	70
scalar test1.rsu[46].nic.mac1609_4 	SentPackets 	35
scalar test1.rsu[46].nic.mac1609_4 	SNIRLostPackets 	0
scalar test1.rsu[46].nic.mac1609_4 	RXTXLostPackets 	0
scalar test1.rsu[46].nic.mac1609_4 	TotalLostPackets 	0
scalar test1.rsu[46].nic.mac1609_4 	DroppedPacketsInMac 	0
scalar test1.rsu[46].nic.mac1609_4 	TooLittleTime 	0
scalar test1.rsu[46].nic.mac1609_4 	TimesIntoBackoff 	36
scalar test1.rsu[46].nic.mac1609_4 	SlotsBackoff 	99
scalar test1.rsu[46].nic.mac1609_4 	NumInternalContention 	0
scalar test1.rsu[46].nic.mac1609_4 	totalBusyTime 	0.024395
scalar test1.rsu[46].appl 	generatedWSMs 	0
scalar test1.rsu[46].appl 	receivedWSMs 	0
scalar test1.rsu[46].appl 	generatedBSMs 	0
scalar test1.rsu[46].appl 	receivedBSMs 	0
scalar test1.rsu[46].appl 	generatedWSAs 	0
scalar test1.rsu[46].appl 	receivedWSAs 	0
scalar test1.rsu[46].appl 	generatedCWSMs 	35
scalar test1.rsu[46].appl 	receivedCWSMs 	70
scalar test1.rsu[47].nic.phy80211p 	busyTime 	0
scalar test1.rsu[47].nic.mac1609_4 	ReceivedUnicastPackets 	0
scalar test1.rsu[47].nic.mac1609_4 	ReceivedBroadcasts 	0
scalar test1.rsu[47].nic.mac1609_4 	SentPackets 	35
scalar test1.rsu[47].nic.mac1609_4 	SNIRLostPackets 	0
scalar test1.rsu[47].nic.mac1609_4 	RXTXLostPackets 	0
scalar test1.rsu[47].nic.mac1609_4 	TotalLostPackets 	0
scalar test1.rsu[47].nic.mac1609_4 	DroppedPacketsInMac 	0
scalar test1.rsu[47].nic.mac1609_4 	TooLittleTime 	0
scalar test1.rsu[47].nic.mac1609_4 	TimesIntoBackoff 	35
scalar test1.rsu[47].nic.mac1609_4 	SlotsBackoff 	109
scalar test1.rsu[47].nic.mac1609_4 	NumInternalContention 	0
scalar test1.rsu[47].nic.mac1609_4 	totalBusyTime 	0.008155
scalar test1.rsu[47].appl 	generatedWSMs 	0
scalar test1.rsu[47].appl 	receivedWSMs 	0
scalar test1.rsu[47].appl 	generatedBSMs 	0
scalar test1.rsu[47].appl 	receivedBSMs 	0
scalar test1.rsu[47].appl 	generatedWSAs 	0
scalar test1.rsu[47].appl 	receivedWSAs 	0
scalar test1.rsu[47].appl 	generatedCWSMs 	35
scalar test1.rsu[47].appl 	receivedCWSMs 	0
scalar test1.rsu[48].nic.phy80211p 	busyTime 	0
scalar test1.rsu[48].nic.mac1609_4 	ReceivedUnicastPackets 	0
scalar test1.rsu[48].nic.mac1609_4 	ReceivedBroadcasts 	0
scalar test1.rsu[48].nic.mac1609_4 	SentPackets 	34
scalar test1.rsu[48].nic.mac1609_4 	SNIRLostPackets 	0
scalar test1.rsu[48].nic.mac1609_4 	RXTXLostPackets 	0
scalar test1.rsu[48].nic.mac1609_4 	TotalLostPackets 	0
scalar test1.rsu[48].nic.mac1609_4 	DroppedPacketsInMac 	0
scalar test1.rsu[48].nic.mac1609_4 	TooLittleTime 	0
scalar test1.rsu[48].nic.mac1609_4 	TimesIntoBackoff 	34
scalar test1.rsu[48].nic.mac1609_4 	SlotsBackoff 	122
scalar test1.rsu[48].nic.mac1609_4 	NumInternalContention 	0
scalar test1.rsu[48].nic.mac1609_4 	totalBusyTime 	0.007922
scalar test1.rsu[48].appl 	generatedWSMs 	0
scalar test1.rsu[48].appl 	receivedWSMs 	0
scalar test1.rsu[48].appl 	generatedBSMs 	0
scalar test1.rsu[48].appl 	receivedBSMs 	0
scalar test1.rsu[48].appl 	generatedWSAs 	0
scalar test1.rsu[48].appl 	receivedWSAs 	0
scalar test1.rsu[48].appl 	generatedCWSMs 	34
scalar test1.rsu[48].appl 	receivedCWSMs 	0
scalar test1.rsu[49].nic.phy80211p 	busyTime 	0
scalar test1.rsu[49].nic.mac1609_4 	ReceivedUnicastPackets 	0
scalar test1.rsu[49].nic.mac1609_4 	ReceivedBroadcasts 	0
scalar test1.rsu[49].nic.mac1609_4 	SentPackets 	34
scalar test1.rsu[49].nic.mac1609_4 	SNIRLostPackets 	0
scalar test1.rsu[49].nic.mac1609_4 	RXTXLostPackets 	0
scalar test1.rsu[49].nic.mac1609_4 	TotalLostPackets 	0
scalar test1.rsu[49].nic.mac1609_4 	DroppedPacketsInMac 	0
scalar test1.rsu[49].nic.mac1609_4 	TooLittleTime 	0
scalar test1.rsu[49].nic.mac1609_4 	TimesIntoBackoff 	34
scalar test1.rsu[49].nic.mac1609_4 	SlotsBackoff 	122
scalar test1.rsu[49].nic.mac1609_4 	NumInternalContention 	0
scalar test1.rsu[49].nic.mac1609_4 	totalBusyTime 	0.007922
scalar test1.rsu[49].appl 	generatedWSMs 	0
scalar test1.rsu[49].appl 	receivedWSMs 	0
scalar test1.rsu[49].appl 	generatedBSMs 	0
scalar test1.rsu[49].appl 	receivedBSMs 	0
scalar test1.rsu[49].appl 	generatedWSAs 	0
scalar test1.rsu[49].appl 	receivedWSAs 	0
scalar test1.rsu[49].appl 	generatedCWSMs 	34
scalar test1.rsu[49].appl 	receivedCWSMs 	0
scalar test1.rsu[50].nic.phy80211p 	busyTime 	0
scalar test1.rsu[50].nic.mac1609_4 	ReceivedUnicastPackets 	0
scalar test1.rsu[50].nic.mac1609_4 	ReceivedBroadcasts 	0
scalar test1.rsu[50].nic.mac1609_4 	SentPackets 	35
scalar test1.rsu[50].nic.mac1609_4 	SNIRLostPackets 	0
scalar test1.rsu[50].nic.mac1609_4 	RXTXLostPackets 	0
scalar test1.rsu[50].nic.mac1609_4 	TotalLostPackets 	0
scalar test1.rsu[50].nic.mac1609_4 	DroppedPacketsInMac 	0
scalar test1.rsu[50].nic.mac1609_4 	TooLittleTime 	0
scalar test1.rsu[50].nic.mac1609_4 	TimesIntoBackoff 	35
scalar test1.rsu[50].nic.mac1609_4 	SlotsBackoff 	136
scalar test1.rsu[50].nic.mac1609_4 	NumInternalContention 	0
scalar test1.rsu[50].nic.mac1609_4 	totalBusyTime 	0.008155
scalar test1.rsu[50].appl 	generatedWSMs 	0
scalar test1.rsu[50].appl 	receivedWSMs 	0
scalar test1.rsu[50].appl 	generatedBSMs 	0
scalar test1.rsu[50].appl 	receivedBSMs 	0
scalar test1.rsu[50].appl 	generatedWSAs 	0
scalar test1.rsu[50].appl 	receivedWSAs 	0
scalar test1.rsu[50].appl 	generatedCWSMs 	35
scalar test1.rsu[50].appl 	receivedCWSMs 	0
scalar test1.rsu[51].nic.phy80211p 	busyTime 	0.0028289550327406
scalar test1.rsu[51].nic.mac1609_4 	ReceivedUnicastPackets 	0
scalar test1.rsu[51].nic.mac1609_4 	ReceivedBroadcasts 	243
scalar test1.rsu[51].nic.mac1609_4 	SentPackets 	35
scalar test1.rsu[51].nic.mac1609_4 	SNIRLostPackets 	196
scalar test1.rsu[51].nic.mac1609_4 	RXTXLostPackets 	0
scalar test1.rsu[51].nic.mac1609_4 	TotalLostPackets 	196
scalar test1.rsu[51].nic.mac1609_4 	DroppedPacketsInMac 	0
scalar test1.rsu[51].nic.mac1609_4 	TooLittleTime 	0
scalar test1.rsu[51].nic.mac1609_4 	TimesIntoBackoff 	35
scalar test1.rsu[51].nic.mac1609_4 	SlotsBackoff 	110
scalar test1.rsu[51].nic.mac1609_4 	NumInternalContention 	0
scalar test1.rsu[51].nic.mac1609_4 	totalBusyTime 	0.082627
scalar test1.rsu[51].appl 	generatedWSMs 	0
scalar test1.rsu[51].appl 	receivedWSMs 	0
scalar test1.rsu[51].appl 	generatedBSMs 	0
scalar test1.rsu[51].appl 	receivedBSMs 	0
scalar test1.rsu[51].appl 	generatedWSAs 	0
scalar test1.rsu[51].appl 	receivedWSAs 	0
scalar test1.rsu[51].appl 	generatedCWSMs 	35
scalar test1.rsu[51].appl 	receivedCWSMs 	243
scalar test1.rsu[52].nic.phy80211p 	busyTime 	0
scalar test1.rsu[52].nic.mac1609_4 	ReceivedUnicastPackets 	0
scalar test1.rsu[52].nic.mac1609_4 	ReceivedBroadcasts 	0
scalar test1.rsu[52].nic.mac1609_4 	SentPackets 	35
scalar test1.rsu[52].nic.mac1609_4 	SNIRLostPackets 	0
scalar test1.rsu[52].nic.mac1609_4 	RXTXLostPackets 	0
scalar test1.rsu[52].nic.mac1609_4 	TotalLostPackets 	0
scalar test1.rsu[52].nic.mac1609_4 	DroppedPacketsInMac 	0
scalar test1.rsu[52].nic.mac1609_4 	TooLittleTime 	0
scalar test1.rsu[52].nic.mac1609_4 	TimesIntoBackoff 	35
scalar test1.rsu[52].nic.mac1609_4 	SlotsBackoff 	106
scalar test1.rsu[52].nic.mac1609_4 	NumInternalContention 	0
scalar test1.rsu[52].nic.mac1609_4 	totalBusyTime 	0.008155
scalar test1.rsu[52].appl 	generatedWSMs 	0
scalar test1.rsu[52].appl 	receivedWSMs 	0
scalar test1.rsu[52].appl 	generatedBSMs 	0
scalar test1.rsu[52].appl 	receivedBSMs 	0
scalar test1.rsu[52].appl 	generatedWSAs 	0
scalar test1.rsu[52].appl 	receivedWSAs 	0
scalar test1.rsu[52].appl 	generatedCWSMs 	35
scalar test1.rsu[52].appl 	receivedCWSMs 	0
scalar test1.rsu[53].nic.phy80211p 	busyTime 	0.00021909902303686
scalar test1.rsu[53].nic.mac1609_4 	ReceivedUnicastPackets 	0
scalar test1.rsu[53].nic.mac1609_4 	ReceivedBroadcasts 	34
scalar test1.rsu[53].nic.mac1609_4 	SentPackets 	34
scalar test1.rsu[53].nic.mac1609_4 	SNIRLostPackets 	0
scalar test1.rsu[53].nic.mac1609_4 	RXTXLostPackets 	0
scalar test1.rsu[53].nic.mac1609_4 	TotalLostPackets 	0
scalar test1.rsu[53].nic.mac1609_4 	DroppedPacketsInMac 	0
scalar test1.rsu[53].nic.mac1609_4 	TooLittleTime 	0
scalar test1.rsu[53].nic.mac1609_4 	TimesIntoBackoff 	34
scalar test1.rsu[53].nic.mac1609_4 	SlotsBackoff 	123
scalar test1.rsu[53].nic.mac1609_4 	NumInternalContention 	0
scalar test1.rsu[53].nic.mac1609_4 	totalBusyTime 	0.01581
scalar test1.rsu[53].appl 	generatedWSMs 	0
scalar test1.rsu[53].appl 	receivedWSMs 	0
scalar test1.rsu[53].appl 	generatedBSMs 	0
scalar test1.rsu[53].appl 	receivedBSMs 	0
scalar test1.rsu[53].appl 	generatedWSAs 	0
scalar test1.rsu[53].appl 	receivedWSAs 	0
scalar test1.rsu[53].appl 	generatedCWSMs 	34
scalar test1.rsu[53].appl 	receivedCWSMs 	34
scalar test1.rsu[54].nic.phy80211p 	busyTime 	0.00022554311194971
scalar test1.rsu[54].nic.mac1609_4 	ReceivedUnicastPackets 	0
scalar test1.rsu[54].nic.mac1609_4 	ReceivedBroadcasts 	35
scalar test1.rsu[54].nic.mac1609_4 	SentPackets 	35
scalar test1.rsu[54].nic.mac1609_4 	SNIRLostPackets 	0
scalar test1.rsu[54].nic.mac1609_4 	RXTXLostPackets 	0
scalar test1.rsu[54].nic.mac1609_4 	TotalLostPackets 	0
scalar test1.rsu[54].nic.mac1609_4 	DroppedPacketsInMac 	0
scalar test1.rsu[54].nic.mac1609_4 	TooLittleTime 	0
scalar test1.rsu[54].nic.mac1609_4 	TimesIntoBackoff 	35
scalar test1.rsu[54].nic.mac1609_4 	SlotsBackoff 	119
scalar test1.rsu[54].nic.mac1609_4 	NumInternalContention 	0
scalar test1.rsu[54].nic.mac1609_4 	totalBusyTime 	0.016275
scalar test1.rsu[54].appl 	generatedWSMs 	0
scalar test1.rsu[54].appl 	receivedWSMs 	0
scalar test1.rsu[54].appl 	generatedBSMs 	0
scalar test1.rsu[54].appl 	receivedBSMs 	0
scalar test1.rsu[54].appl 	generatedWSAs 	0
scalar test1.rsu[54].appl 	receivedWSAs 	0
scalar test1.rsu[54].appl 	generatedCWSMs 	35
scalar test1.rsu[54].appl 	receivedCWSMs 	35
scalar test1.rsu[55].nic.phy80211p 	busyTime 	0.00044464213498656
scalar test1.rsu[55].nic.mac1609_4 	ReceivedUnicastPackets 	0
scalar test1.rsu[55].nic.mac1609_4 	ReceivedBroadcasts 	69
scalar test1.rsu[55].nic.mac1609_4 	SentPackets 	35
scalar test1.rsu[55].nic.mac1609_4 	SNIRLostPackets 	0
scalar test1.rsu[55].nic.mac1609_4 	RXTXLostPackets 	0
scalar test1.rsu[55].nic.mac1609_4 	TotalLostPackets 	0
scalar test1.rsu[55].nic.mac1609_4 	DroppedPacketsInMac 	0
scalar test1.rsu[55].nic.mac1609_4 	TooLittleTime 	0
scalar test1.rsu[55].nic.mac1609_4 	TimesIntoBackoff 	35
scalar test1.rsu[55].nic.mac1609_4 	SlotsBackoff 	126
scalar test1.rsu[55].nic.mac1609_4 	NumInternalContention 	0
scalar test1.rsu[55].nic.mac1609_4 	totalBusyTime 	0.024163
scalar test1.rsu[55].appl 	generatedWSMs 	0
scalar test1.rsu[55].appl 	receivedWSMs 	0
scalar test1.rsu[55].appl 	generatedBSMs 	0
scalar test1.rsu[55].appl 	receivedBSMs 	0
scalar test1.rsu[55].appl 	generatedWSAs 	0
scalar test1.rsu[55].appl 	receivedWSAs 	0
scalar test1.rsu[55].appl 	generatedCWSMs 	35
scalar test1.rsu[55].appl 	receivedCWSMs 	69
scalar test1.rsu[56].nic.phy80211p 	busyTime 	0.0011212714708357
scalar test1.rsu[56].nic.mac1609_4 	ReceivedUnicastPackets 	0
scalar test1.rsu[56].nic.mac1609_4 	ReceivedBroadcasts 	172
scalar test1.rsu[56].nic.mac1609_4 	SentPackets 	35
scalar test1.rsu[56].nic.mac1609_4 	SNIRLostPackets 	2
scalar test1.rsu[56].nic.mac1609_4 	RXTXLostPackets 	0
scalar test1.rsu[56].nic.mac1609_4 	TotalLostPackets 	2
scalar test1.rsu[56].nic.mac1609_4 	DroppedPacketsInMac 	0
scalar test1.rsu[56].nic.mac1609_4 	TooLittleTime 	0
scalar test1.rsu[56].nic.mac1609_4 	TimesIntoBackoff 	35
scalar test1.rsu[56].nic.mac1609_4 	SlotsBackoff 	126
scalar test1.rsu[56].nic.mac1609_4 	NumInternalContention 	0
scalar test1.rsu[56].nic.mac1609_4 	totalBusyTime 	0.048523
scalar test1.rsu[56].appl 	generatedWSMs 	0
scalar test1.rsu[56].appl 	receivedWSMs 	0
scalar test1.rsu[56].appl 	generatedBSMs 	0
scalar test1.rsu[56].appl 	receivedBSMs 	0
scalar test1.rsu[56].appl 	generatedWSAs 	0
scalar test1.rsu[56].appl 	receivedWSAs 	0
scalar test1.rsu[56].appl 	generatedCWSMs 	35
scalar test1.rsu[56].appl 	receivedCWSMs 	172
scalar test1.rsu[57].nic.phy80211p 	busyTime 	0.0019654471184189
scalar test1.rsu[57].nic.mac1609_4 	ReceivedUnicastPackets 	0
scalar test1.rsu[57].nic.mac1609_4 	ReceivedBroadcasts 	184
scalar test1.rsu[57].nic.mac1609_4 	SentPackets 	34
scalar test1.rsu[57].nic.mac1609_4 	SNIRLostPackets 	120
scalar test1.rsu[57].nic.mac1609_4 	RXTXLostPackets 	0
scalar test1.rsu[57].nic.mac1609_4 	TotalLostPackets 	120
scalar test1.rsu[57].nic.mac1609_4 	DroppedPacketsInMac 	0
scalar test1.rsu[57].nic.mac1609_4 	TooLittleTime 	0
scalar test1.rsu[57].nic.mac1609_4 	TimesIntoBackoff 	34
scalar test1.rsu[57].nic.mac1609_4 	SlotsBackoff 	118
scalar test1.rsu[57].nic.mac1609_4 	NumInternalContention 	0
scalar test1.rsu[57].nic.mac1609_4 	totalBusyTime 	0.066154
scalar test1.rsu[57].appl 	generatedWSMs 	0
scalar test1.rsu[57].appl 	receivedWSMs 	0
scalar test1.rsu[57].appl 	generatedBSMs 	0
scalar test1.rsu[57].appl 	receivedBSMs 	0
scalar test1.rsu[57].appl 	generatedWSAs 	0
scalar test1.rsu[57].appl 	receivedWSAs 	0
scalar test1.rsu[57].appl 	generatedCWSMs 	34
scalar test1.rsu[57].appl 	receivedCWSMs 	184
scalar test1.rsu[58].nic.phy80211p 	busyTime 	0
scalar test1.rsu[58].nic.mac1609_4 	ReceivedUnicastPackets 	0
scalar test1.rsu[58].nic.mac1609_4 	ReceivedBroadcasts 	0
scalar test1.rsu[58].nic.mac1609_4 	SentPackets 	35
scalar test1.rsu[58].nic.mac1609_4 	SNIRLostPackets 	0
scalar test1.rsu[58].nic.mac1609_4 	RXTXLostPackets 	0
scalar test1.rsu[58].nic.mac1609_4 	TotalLostPackets 	0
scalar test1.rsu[58].nic.mac1609_4 	DroppedPacketsInMac 	0
scalar test1.rsu[58].nic.mac1609_4 	TooLittleTime 	0
scalar test1.rsu[58].nic.mac1609_4 	TimesIntoBackoff 	35
scalar test1.rsu[58].nic.mac1609_4 	SlotsBackoff 	122
scalar test1.rsu[58].nic.mac1609_4 	NumInternalContention 	0
scalar test1.rsu[58].nic.mac1609_4 	totalBusyTime 	0.008155
scalar test1.rsu[58].appl 	generatedWSMs 	0
scalar test1.rsu[58].appl 	receivedWSMs 	0
scalar test1.rsu[58].appl 	generatedBSMs 	0
scalar test1.rsu[58].appl 	receivedBSMs 	0
scalar test1.rsu[58].appl 	generatedWSAs 	0
scalar test1.rsu[58].appl 	receivedWSAs 	0
scalar test1.rsu[58].appl 	generatedCWSMs 	35
scalar test1.rsu[58].appl 	receivedCWSMs 	0
scalar test1.rsu[59].nic.phy80211p 	busyTime 	0.0014305877386524
scalar test1.rsu[59].nic.mac1609_4 	ReceivedUnicastPackets 	0
scalar test1.rsu[59].nic.mac1609_4 	ReceivedBroadcasts 	195
scalar test1.rsu[59].nic.mac1609_4 	SentPackets 	34
scalar test1.rsu[59].nic.mac1609_4 	SNIRLostPackets 	27
scalar test1.rsu[59].nic.mac1609_4 	RXTXLostPackets 	0
scalar test1.rsu[59].nic.mac1609_4 	TotalLostPackets 	27
scalar test1.rsu[59].nic.mac1609_4 	DroppedPacketsInMac 	0
scalar test1.rsu[59].nic.mac1609_4 	TooLittleTime 	0
scalar test1.rsu[59].nic.mac1609_4 	TimesIntoBackoff 	34
scalar test1.rsu[59].nic.mac1609_4 	SlotsBackoff 	117
scalar test1.rsu[59].nic.mac1609_4 	NumInternalContention 	0
scalar test1.rsu[59].nic.mac1609_4 	totalBusyTime 	0.059426
scalar test1.rsu[59].appl 	generatedWSMs 	0
scalar test1.rsu[59].appl 	receivedWSMs 	0
scalar test1.rsu[59].appl 	generatedBSMs 	0
scalar test1.rsu[59].appl 	receivedBSMs 	0
scalar test1.rsu[59].appl 	generatedWSAs 	0
scalar test1.rsu[59].appl 	receivedWSAs 	0
scalar test1.rsu[59].appl 	generatedCWSMs 	34
scalar test1.rsu[59].appl 	receivedCWSMs 	195
scalar test1.rsu[60].nic.phy80211p 	busyTime 	0.00044464213498656
scalar test1.rsu[60].nic.mac1609_4 	ReceivedUnicastPackets 	0
scalar test1.rsu[60].nic.mac1609_4 	ReceivedBroadcasts 	69
scalar test1.rsu[60].nic.mac1609_4 	SentPackets 	35
scalar test1.rsu[60].nic.mac1609_4 	SNIRLostPackets 	0
scalar test1.rsu[60].nic.mac1609_4 	RXTXLostPackets 	0
scalar test1.rsu[60].nic.mac1609_4 	TotalLostPackets 	0
scalar test1.rsu[60].nic.mac1609_4 	DroppedPacketsInMac 	0
scalar test1.rsu[60].nic.mac1609_4 	TooLittleTime 	0
scalar test1.rsu[60].nic.mac1609_4 	TimesIntoBackoff 	35
scalar test1.rsu[60].nic.mac1609_4 	SlotsBackoff 	130
scalar test1.rsu[60].nic.mac1609_4 	NumInternalContention 	0
scalar test1.rsu[60].nic.mac1609_4 	totalBusyTime 	0.024163
scalar test1.rsu[60].appl 	generatedWSMs 	0
scalar test1.rsu[60].appl 	receivedWSMs 	0
scalar test1.rsu[60].appl 	generatedBSMs 	0
scalar test1.rsu[60].appl 	receivedBSMs 	0
scalar test1.rsu[60].appl 	generatedWSAs 	0
scalar test1.rsu[60].appl 	receivedWSAs 	0
scalar test1.rsu[60].appl 	generatedCWSMs 	35
scalar test1.rsu[60].appl 	receivedCWSMs 	69
scalar test1.rsu[61].nic.phy80211p 	busyTime 	0.00084417564758318
scalar test1.rsu[61].nic.mac1609_4 	ReceivedUnicastPackets 	0
scalar test1.rsu[61].nic.mac1609_4 	ReceivedBroadcasts 	106
scalar test1.rsu[61].nic.mac1609_4 	SentPackets 	35
scalar test1.rsu[61].nic.mac1609_4 	SNIRLostPackets 	25
scalar test1.rsu[61].nic.mac1609_4 	RXTXLostPackets 	0
scalar test1.rsu[61].nic.mac1609_4 	TotalLostPackets 	25
scalar test1.rsu[61].nic.mac1609_4 	DroppedPacketsInMac 	0
scalar test1.rsu[61].nic.mac1609_4 	TooLittleTime 	0
scalar test1.rsu[61].nic.mac1609_4 	TimesIntoBackoff 	35
scalar test1.rsu[61].nic.mac1609_4 	SlotsBackoff 	123
scalar test1.rsu[61].nic.mac1609_4 	NumInternalContention 	0
scalar test1.rsu[61].nic.mac1609_4 	totalBusyTime 	0.037155
scalar test1.rsu[61].appl 	generatedWSMs 	0
scalar test1.rsu[61].appl 	receivedWSMs 	0
scalar test1.rsu[61].appl 	generatedBSMs 	0
scalar test1.rsu[61].appl 	receivedBSMs 	0
scalar test1.rsu[61].appl 	generatedWSAs 	0
scalar test1.rsu[61].appl 	receivedWSAs 	0
scalar test1.rsu[61].appl 	generatedCWSMs 	35
scalar test1.rsu[61].appl 	receivedCWSMs 	106
scalar test1.rsu[62].nic.phy80211p 	busyTime 	0.0014950286277809
scalar test1.rsu[62].nic.mac1609_4 	ReceivedUnicastPackets 	0
scalar test1.rsu[62].nic.mac1609_4 	ReceivedBroadcasts 	146
scalar test1.rsu[62].nic.mac1609_4 	SentPackets 	35
scalar test1.rsu[62].nic.mac1609_4 	SNIRLostPackets 	86
scalar test1.rsu[62].nic.mac1609_4 	RXTXLostPackets 	0
scalar test1.rsu[62].nic.mac1609_4 	TotalLostPackets 	86
scalar test1.rsu[62].nic.mac1609_4 	DroppedPacketsInMac 	0
scalar test1.rsu[62].nic.mac1609_4 	TooLittleTime 	0
scalar test1.rsu[62].nic.mac1609_4 	TimesIntoBackoff 	35
scalar test1.rsu[62].nic.mac1609_4 	SlotsBackoff 	100
scalar test1.rsu[62].nic.mac1609_4 	NumInternalContention 	0
scalar test1.rsu[62].nic.mac1609_4 	totalBusyTime 	0.053163
scalar test1.rsu[62].appl 	generatedWSMs 	0
scalar test1.rsu[62].appl 	receivedWSMs 	0
scalar test1.rsu[62].appl 	generatedBSMs 	0
scalar test1.rsu[62].appl 	receivedBSMs 	0
scalar test1.rsu[62].appl 	generatedWSAs 	0
scalar test1.rsu[62].appl 	receivedWSAs 	0
scalar test1.rsu[62].appl 	generatedCWSMs 	35
scalar test1.rsu[62].appl 	receivedCWSMs 	146
scalar test1.rsu[63].nic.phy80211p 	busyTime 	0.00045108622389941
scalar test1.rsu[63].nic.mac1609_4 	ReceivedUnicastPackets 	0
scalar test1.rsu[63].nic.mac1609_4 	ReceivedBroadcasts 	70
scalar test1.rsu[63].nic.mac1609_4 	SentPackets 	34
scalar test1.rsu[63].nic.mac1609_4 	SNIRLostPackets 	0
scalar test1.rsu[63].nic.mac1609_4 	RXTXLostPackets 	0
scalar test1.rsu[63].nic.mac1609_4 	TotalLostPackets 	0
scalar test1.rsu[63].nic.mac1609_4 	DroppedPacketsInMac 	0
scalar test1.rsu[63].nic.mac1609_4 	TooLittleTime 	0
scalar test1.rsu[63].nic.mac1609_4 	TimesIntoBackoff 	34
scalar test1.rsu[63].nic.mac1609_4 	SlotsBackoff 	107
scalar test1.rsu[63].nic.mac1609_4 	NumInternalContention 	0
scalar test1.rsu[63].nic.mac1609_4 	totalBusyTime 	0.024162
scalar test1.rsu[63].appl 	generatedWSMs 	0
scalar test1.rsu[63].appl 	receivedWSMs 	0
scalar test1.rsu[63].appl 	generatedBSMs 	0
scalar test1.rsu[63].appl 	receivedBSMs 	0
scalar test1.rsu[63].appl 	generatedWSAs 	0
scalar test1.rsu[63].appl 	receivedWSAs 	0
scalar test1.rsu[63].appl 	generatedCWSMs 	34
scalar test1.rsu[63].appl 	receivedCWSMs 	70
